# generated using pymatgen
data_Ag2Se
_symmetry_space_group_name_H-M   P2_1/c
_cell_length_a   4.41859050
_cell_length_b   6.88758105
_cell_length_c   7.95984796
_cell_angle_alpha   90.00000000
_cell_angle_beta   106.90064674
_cell_angle_gamma   90.00000000
_symmetry_Int_Tables_number   14
_chemical_formula_structural   Ag2Se
_chemical_formula_sum   'Ag8 Se4'
_cell_volume   231.78273967
_cell_formula_units_Z   4
loop_
 _symmetry_equiv_pos_site_id
 _symmetry_equiv_pos_as_xyz
  1  'x, y, z'
  2  '-x, -y, -z'
  3  '-x, y+1/2, -z+1/2'
  4  'x, -y+1/2, z+1/2'
loop_
 _atom_site_type_symbol
 _atom_site_label
 _atom_site_symmetry_multiplicity
 _atom_site_fract_x
 _atom_site_fract_y
 _atom_site_fract_z
 _atom_site_occupancy
  Ag  Ag0  4  0.24269857  0.13925501  0.96703907  1
  Ag  Ag1  4  0.42718043  0.52244519  0.15993158  1
  Se  Se2  4  0.16441756  0.74827764  0.34316343  1
