# generated using pymatgen
data_Ag2Se
_symmetry_space_group_name_H-M   'P 1'
_cell_length_a   4.41859050
_cell_length_b   6.88758105
_cell_length_c   7.90149408
_cell_angle_alpha   90.00000000
_cell_angle_beta   105.44715776
_cell_angle_gamma   90.00000000
_symmetry_Int_Tables_number   1
_chemical_formula_structural   Ag2Se
_chemical_formula_sum   'Ag8 Se4'
_cell_volume   231.78273967
_cell_formula_units_Z   4
loop_
 _symmetry_equiv_pos_site_id
 _symmetry_equiv_pos_as_xyz
  1  'x, y, z'
loop_
 _atom_site_type_symbol
 _atom_site_label
 _atom_site_symmetry_multiplicity
 _atom_site_fract_x
 _atom_site_fract_y
 _atom_site_fract_z
 _atom_site_occupancy
  Se  Se0  1  0.32125411  0.24827764  0.15683651  1
  Se  Se1  1  0.17874584  0.74827764  0.34316337  1
  Se  Se2  1  0.67874584  0.75172236  0.84316337  1
  Se  Se3  1  0.82125411  0.25172236  0.65683651  1
  Ag  Ag4  1  0.76724883  0.02244519  0.34006836  1
  Ag  Ag5  1  0.73275113  0.52244519  0.15993152  1
  Ag  Ag6  1  0.23275113  0.97755481  0.65993152  1
  Ag  Ag7  1  0.26724883  0.47755481  0.84006836  1
  Ag  Ag8  1  0.22434047  0.36074499  0.46703901  1
  Ag  Ag9  1  0.27565948  0.86074499  0.03296087  1
  Ag  Ag10  1  0.77565948  0.63925501  0.53296087  1
  Ag  Ag11  1  0.72434047  0.13925501  0.96703901  1
