TITL 4Ag2Se_TETRA-200803-162433-0d7ed2 -0.0171 235.656193 -4.61178585E+004 0 0 12 (P21/c) n - 1
REM
REM Run started: Mon, 03 Aug 2020 17:26:10 +0100 in /lustre/scratch/uccabz1/launch_tmp/launcher_2020-08-03-15-24-31-926729
REM CASTEP 20.1 from code version af48c487+ pr-geom-scf-spinfix Tue Jun 2 15:39:59 2020 +0100
REM Functional PBE for solids (2008) Relativity Koelling-Harmon Dispersion off
REM Cut-off 300.0000 eV Grid scale 1.7500 Gmax 15.5288 1/A FBSC none
REM MP grid 4 4 2 Offset 0.000 0.000 0.000 No. kpts 16 Spacing 0.07
REM Total runtime: 4047.18 s
REM Overall efficiency: 92.9167 %
REM
REM 4Ag2Se_TETRA.cell (4020362940262d3df87d4014b41eb05e)
REM
REM compiler GCC version 4.9.2
REM options -cpp -iprefix /lustre/shared/ucl/apps/gcc/4.9.2/bin/../lib/gcc/x86_64-unknown-linux-gnu/4.9.2/ -mtune=corei7 -march=x86-64 -g -Og
REM COMMAND_LINE
REM seed 1044696112 2145874600 -601652861 2026782029 -485448480 -2052503275 533970594 1010162121 -733601481 -1732604385 -1866144067 323556321
REM
REM Se 3|2.1|7|7|9|40:41:32(qc=5)
REM Ag 3|2.2|7|7|9|40U:50:41:42(qc=5)
REM 
CELL 1.54180    4.54872    4.45742   11.62269   89.99635   90.05386   89.98129
LATT -1
SFAC Se Ag 
Se     1 -0.2898446876298  0.2093413466076  0.1481699122239 1.0
Se     1  0.2898446876298 -0.2093413466076 -0.1481699122239 1.0
Se     1 -0.2106968912429  0.2908019319848 -0.3515079690401 1.0
Se     1  0.2106968912429 -0.2908019319848  0.3515079690401 1.0
Ag     2  0.3075989539733  0.2816872464832 -0.4806796129457 1.0
Ag     2 -0.3075989539733 -0.2816872464832  0.4806796129457 1.0
Ag     2 -0.3633732245148  0.2967128722263 -0.1347121319370 1.0
Ag     2  0.3633732245148 -0.2967128722263  0.1347121319370 1.0
Ag     2  0.1912729735382  0.2195283091984  0.0190646807995 1.0
Ag     2 -0.1912729735382 -0.2195283091984 -0.0190646807995 1.0
Ag     2 -0.1367335102745  0.2023890214740  0.3650379228296 1.0
Ag     2  0.1367335102745 -0.2023890214740 -0.3650379228296 1.0
END
