TITL 4Ag2Se_TETRA_OPT-200811-090646-b8e101 -0.1516 229.519554 -4.61182178E+004 0 0 12 (P1) n - 1
REM
REM Run started: Tue, 11 Aug 2020 11:05:13 +0100 in /lustre/scratch/uccabz1/launch_tmp/launcher_2020-08-11-08-06-44-966463
REM CASTEP 20.1 from code version af48c487+ pr-geom-scf-spinfix Tue Jun 2 15:39:59 2020 +0100
REM Functional PBE for solids (2008) Relativity Koelling-Harmon Dispersion off
REM Cut-off 300.0000 eV Grid scale 1.7500 Gmax 15.5288 1/A FBSC none
REM MP grid 4 3 2 Offset 0.000 0.000 0.000 No. kpts 12 Spacing 0.07
REM Total runtime: 7822.76 s
REM Overall efficiency: 81 %
REM
REM 4Ag2Se_TETRA_OPT.cell (db6eaae92e6a5f18c152ebab86a92a61)
REM
REM compiler GCC version 4.9.2
REM options -cpp -iprefix /lustre/shared/ucl/apps/gcc/4.9.2/bin/../lib/gcc/x86_64-unknown-linux-gnu/4.9.2/ -mtune=corei7 -march=x86-64 -g -Og
REM COMMAND_LINE
REM seed 1160758198 -915914850 1606512428 -1144371289 -2125245900 831400332 -1876116034 1007050711 423915666 2136916357 1941370140 -1564695807
REM
REM Se 3|2.1|7|7|9|40:41:32(qc=5)
REM Ag 3|2.2|7|7|9|40U:50:41:42(qc=5)
REM 
CELL 1.54180    4.44138    6.73248    7.76853   88.66812   84.13775   83.37965
LATT -1
SFAC Se Ag 
Se     1 -0.0308717564763 -0.3137786643146  0.4413836164208 1.0
Se     1 -0.5537453817556  0.1257509697158 -0.2113722398795 1.0
Se     1  0.1705452322970  0.1658717678756  0.2623913947914 1.0
Se     1 -0.2769865697474 -0.4187542695792 -0.0379047086215 1.0
Ag     2  0.0156439435666 -0.0823191250437 -0.3048789396287 1.0
Ag     2  0.1750359162285 -0.2305038272149  0.0120112198300 1.0
Ag     2  0.4783378201055 -0.5130539833720  0.2737792500110 1.0
Ag     2 -0.1259543240742  0.1843781423060 -0.0117512866968 1.0
Ag     2 -0.5045593355057 -0.3972031381992 -0.3477357827135 1.0
Ag     2 -0.3368361013680  0.1431680142780  0.4651755721903 1.0
Ag     2  0.0682521914716  0.3515523696648 -0.3847701364662 1.0
Ag     2 -0.3910283347419 -0.1167218561166  0.2031192407626 1.0
END
