TITL 4Ag2Se_TETRA_OPT-200811-112604-6f640a 0.1607 236.244052 -4.61183735E+004 0 0 12 (P1) n - 1
REM
REM Run started: Tue, 11 Aug 2020 14:12:32 +0100 in /lustre/scratch/uccabz1/launch_tmp/launcher_2020-08-11-10-26-02-934932
REM CASTEP 20.1 from code version af48c487+ pr-geom-scf-spinfix Tue Jun 2 15:39:59 2020 +0100
REM Functional PBE for solids (2008) Relativity Koelling-Harmon Dispersion off
REM Cut-off 300.0000 eV Grid scale 1.7500 Gmax 15.5288 1/A FBSC none
REM MP grid 3 3 3 Offset 0.000 0.000 0.000 No. kpts 14 Spacing 0.07
REM Total runtime: 10932.6 s
REM Overall efficiency: 95.5833 %
REM
REM 4Ag2Se_TETRA_OPT.cell (db6eaae92e6a5f18c152ebab86a92a61)
REM
REM compiler GCC version 4.9.2
REM options -cpp -iprefix /lustre/shared/ucl/apps/gcc/4.9.2/bin/../lib/gcc/x86_64-unknown-linux-gnu/4.9.2/ -mtune=corei7 -march=x86-64 -g -Og
REM COMMAND_LINE
REM seed 734339144 -1782349119 1271268253 437618753 -117059797 -573712090 -1956107863 2020939487 1807586349 -21523025 -343062242 -2024997271
REM
REM Se 3|2.1|7|7|9|40:41:32(qc=5)
REM Ag 3|2.2|7|7|9|40U:50:41:42(qc=5)
REM 
CELL 1.54180    5.39927    6.32121    6.99652   82.07114   87.44730   88.75063
LATT -1
SFAC Se Ag 
Se     1 -0.2368479828516  0.4849841290947 -0.0364879086523 1.0
Se     1 -0.1252801254305 -0.0792633040490  0.3588822093707 1.0
Se     1  0.3577046610959 -0.4220727724913  0.3719311222459 1.0
Se     1  0.3581482884973  0.0115628789364 -0.2379912571316 1.0
Ag     2  0.1299176274739  0.1939859934612  0.0336988147110 1.0
Ag     2 -0.1355354931561 -0.0185269342568 -0.2663301401958 1.0
Ag     2 -0.4111282844419 -0.1155258528264  0.0777740361451 1.0
Ag     2  0.0532020608088  0.2755530250085  0.4149102097406 1.0
Ag     2 -0.3768894501073  0.3915462758618 -0.3555123080615 1.0
Ag     2  0.1149707988408 -0.2690641773043  0.0482270273308 1.0
Ag     2 -0.4431282578068  0.2265906781694  0.2922163462512 1.0
Ag     2  0.0985319570773 -0.4268218396041 -0.3109627517542 1.0
END
