TITL 4Ag2Se_TETRA_OPT-200811-091531-ba776d 0.1456 224.639588 -4.61184270E+004 0 0 12 (P1) n - 1
REM
REM Run started: Tue, 11 Aug 2020 11:59:16 +0100 in /lustre/scratch/uccabz1/launch_tmp/launcher_2020-08-11-08-15-29-549240
REM CASTEP 20.1 from code version af48c487+ pr-geom-scf-spinfix Tue Jun 2 15:39:59 2020 +0100
REM Functional PBE for solids (2008) Relativity Koelling-Harmon Dispersion off
REM Cut-off 300.0000 eV Grid scale 1.7500 Gmax 15.5288 1/A FBSC none
REM MP grid 3 3 3 Offset 0.000 0.000 0.000 No. kpts 14 Spacing 0.07
REM Total runtime: 11000.8 s
REM Overall efficiency: 95.6667 %
REM
REM 4Ag2Se_TETRA_OPT.cell (db6eaae92e6a5f18c152ebab86a92a61)
REM
REM compiler GCC version 4.9.2
REM options -cpp -iprefix /lustre/shared/ucl/apps/gcc/4.9.2/bin/../lib/gcc/x86_64-unknown-linux-gnu/4.9.2/ -mtune=corei7 -march=x86-64 -g -Og
REM COMMAND_LINE
REM seed 1582539941 1547182186 1761372777 -646679305 1809046810 -282125296 93438597 -839122561 424908744 -1617617192 598298034 5472794
REM
REM Se 3|2.1|7|7|9|40:41:32(qc=5)
REM Ag 3|2.2|7|7|9|40U:50:41:42(qc=5)
REM 
CELL 1.54180    5.07976    6.88896    6.44394   88.51434   93.98520   92.74480
LATT -1
SFAC Se Ag 
Se     1  0.1910160874199  0.0092994038198 -0.2321854727041 1.0
Se     1 -0.0188554493857 -0.4334075434860  0.2961153839009 1.0
Se     1 -0.4719503927380 -0.4496975651542 -0.2521200541826 1.0
Se     1 -0.3640142695424  0.1275692750858  0.2705028072394 1.0
Ag     2  0.0431195617983 -0.3728994883870 -0.1464587814483 1.0
Ag     2  0.2763204060451  0.2933850926006  0.4780713763678 1.0
Ag     2 -0.3043244815102 -0.0739872969087 -0.0629206265090 1.0
Ag     2  0.0936700949361  0.2572479889788  0.0538552941308 1.0
Ag     2 -0.2872139780918 -0.1713361314870 -0.4895746075917 1.0
Ag     2 -0.5248071542558 -0.4233263896248  0.1628181232530 1.0
Ag     2  0.2064226600328 -0.0925886570797  0.2840449968087 1.0
Ag     2 -0.1956956847083  0.2561436116424 -0.3338730392649 1.0
END
