TITL 4Ag2Se_TETRA_OPT-200811-104748-38cf7c 0.1364 230.914894 -4.61180487E+004 0 0 12 (P1) n - 1
REM
REM Run started: Tue, 11 Aug 2020 12:37:53 +0100 in /lustre/scratch/uccabz1/launch_tmp/launcher_2020-08-11-09-47-46-189421
REM CASTEP 20.1 from code version af48c487+ pr-geom-scf-spinfix Tue Jun 2 15:39:59 2020 +0100
REM Functional PBE for solids (2008) Relativity Koelling-Harmon Dispersion off
REM Cut-off 300.0000 eV Grid scale 1.7500 Gmax 15.5288 1/A FBSC none
REM MP grid 3 3 2 Offset 0.000 0.000 0.000 No. kpts 9 Spacing 0.07
REM Total runtime: 7218.99 s
REM Overall efficiency: 93 %
REM
REM 4Ag2Se_TETRA_OPT.cell (db6eaae92e6a5f18c152ebab86a92a61)
REM
REM compiler GCC version 4.9.2
REM options -cpp -iprefix /lustre/shared/ucl/apps/gcc/4.9.2/bin/../lib/gcc/x86_64-unknown-linux-gnu/4.9.2/ -mtune=corei7 -march=x86-64 -g -Og
REM COMMAND_LINE
REM seed 1093603953 -949123515 -798300034 -1513056527 1031791901 554863316 -929032432 1864779752 1471788796 421580124 983144966 1816359553
REM
REM Se 3|2.1|7|7|9|40:41:32(qc=5)
REM Ag 3|2.2|7|7|9|40U:50:41:42(qc=5)
REM 
CELL 1.54180    4.81631    6.44236    7.48896   94.24787   93.81604   86.79668
LATT -1
SFAC Se Ag 
Se     1 -0.1502176026684  0.0480454531366 -0.1751213778179 1.0
Se     1 -0.4369110396100 -0.0191000433974  0.1891673914694 1.0
Se     1 -0.6048510007735  0.4513059697593 -0.4064329066789 1.0
Se     1  0.0594572377657 -0.4154277279264  0.1590043980990 1.0
Ag     2  0.5772220023423  0.4078500124496  0.2162180654450 1.0
Ag     2 -0.2296295924197  0.0868566474194 -0.5000984057354 1.0
Ag     2  0.2916377687617 -0.1514537008638  0.4481171435455 1.0
Ag     2 -0.1653728570951 -0.3624756898550  0.5094579646789 1.0
Ag     2 -0.2600908755319 -0.4718415394114 -0.1277077105506 1.0
Ag     2  0.2228105434909 -0.2406412605722 -0.1891286266172 1.0
Ag     2  0.2903617358261  0.2594509967506 -0.1100636398388 1.0
Ag     2  0.0787606799121  0.1771555825108  0.2173577040008 1.0
END
