TITL 4Ag2Se_TETRA-200803-161521-92ca3d -0.0106 225.359755 -4.61184273E+004 0 0 12 (P212121) n - 1
REM
REM Run started: Mon, 03 Aug 2020 16:39:02 +0100 in /lustre/scratch/uccabz1/launch_tmp/launcher_2020-08-03-15-15-19-664137
REM CASTEP 20.1 from code version af48c487+ pr-geom-scf-spinfix Tue Jun 2 15:39:59 2020 +0100
REM Functional PBE for solids (2008) Relativity Koelling-Harmon Dispersion off
REM Cut-off 300.0000 eV Grid scale 1.7500 Gmax 15.5288 1/A FBSC none
REM MP grid 4 4 2 Offset 0.000 0.000 0.000 No. kpts 4 Spacing 0.07
REM Total runtime: 1552.24 s
REM Overall efficiency: 74.25 %
REM
REM 4Ag2Se_TETRA.cell (4020362940262d3df87d4014b41eb05e)
REM
REM compiler GCC version 4.9.2
REM options -cpp -iprefix /lustre/shared/ucl/apps/gcc/4.9.2/bin/../lib/gcc/x86_64-unknown-linux-gnu/4.9.2/ -mtune=corei7 -march=x86-64 -g -Og
REM COMMAND_LINE
REM seed -1002219591 1014175934 1678514011 1342372725 -57473325 3550083 -1548877510 243101109 -350456847 2001521662 1070707521 2080659572
REM
REM Se 3|2.1|7|7|9|40:41:32(qc=5)
REM Ag 3|2.2|7|7|9|40U:50:41:42(qc=5)
REM 
CELL 1.54180    4.04616    4.20406   13.24840   90.00000   90.00000   90.00000
LATT -1
SFAC Se Ag 
Se     1 -0.4862361829546 -0.2847022750262  0.3539052369236 1.0
Se     1 -0.0137638170454  0.2152977249738 -0.3539052369236 1.0
Se     1  0.4862361829546 -0.2152977249738 -0.1460947630764 1.0
Se     1  0.0137638170454  0.2847022750262  0.1460947630764 1.0
Ag     2 -0.0222491122493 -0.1397275230151 -0.0004950980027 1.0
Ag     2 -0.4777508877507  0.3602724769849  0.0004950980027 1.0
Ag     2  0.0222491122493 -0.3602724769849 -0.5004950980027 1.0
Ag     2  0.4777508877507  0.1397275230151  0.5004950980027 1.0
Ag     2  0.0710449197286  0.2858378697584 -0.1580371761468 1.0
Ag     2  0.4289550802714 -0.2141621302416  0.1580371761468 1.0
Ag     2 -0.0710449197286  0.2141621302416  0.3419628238532 1.0
Ag     2 -0.4289550802714 -0.2858378697584 -0.3419628238532 1.0
END
