TITL 4Ag2Se_TETRA-200803-162256-416824 -0.0192 240.084742 -4.61174984E+004 0 0 12 (Pc) n - 1
REM
REM Run started: Mon, 03 Aug 2020 16:55:41 +0100 in /lustre/scratch/uccabz1/launch_tmp/launcher_2020-08-03-15-22-55-081130
REM CASTEP 20.1 from code version af48c487+ pr-geom-scf-spinfix Tue Jun 2 15:39:59 2020 +0100
REM Functional PBE for solids (2008) Relativity Koelling-Harmon Dispersion off
REM Cut-off 300.0000 eV Grid scale 1.7500 Gmax 15.5288 1/A FBSC none
REM MP grid 4 4 1 Offset 0.000 0.000 0.000 No. kpts 4 Spacing 0.07
REM Total runtime: 2089.89 s
REM Overall efficiency: 80.25 %
REM
REM 4Ag2Se_TETRA.cell (4020362940262d3df87d4014b41eb05e)
REM
REM compiler GCC version 4.9.2
REM options -cpp -iprefix /lustre/shared/ucl/apps/gcc/4.9.2/bin/../lib/gcc/x86_64-unknown-linux-gnu/4.9.2/ -mtune=corei7 -march=x86-64 -g -Og
REM COMMAND_LINE
REM seed 624912664 -1030686378 -1239093917 1512979091 1995699332 -387715133 -1733781726 866269630 -737929300 -1349434902 904003387 -1093908394
REM
REM Se 3|2.1|7|7|9|40:41:32(qc=5)
REM Ag 3|2.2|7|7|9|40U:50:41:42(qc=5)
REM 
CELL 1.54180    4.03859    4.03994   14.71616   90.00000   90.72246   90.00000
LATT -1
SFAC Se Ag 
Se     1  0.4402465868081 -0.2750945979038 -0.4258787329016 1.0
Se     1  0.4402465868081  0.2750945979038  0.0741212670984 1.0
Se     1  0.0179444977856  0.2175231469314 -0.1723242950208 1.0
Se     1  0.0179444977856 -0.2175231469314  0.3276757049792 1.0
Ag     2  0.0161060876403 -0.1241829721635 -0.0161378994584 1.0
Ag     2  0.0161060876403  0.1241829721635  0.4838621005416 1.0
Ag     2  0.2914085446558 -0.2333585519131  0.1721082708223 1.0
Ag     2  0.2914085446558  0.2333585519131 -0.3278917291777 1.0
Ag     2 -0.2001707234949 -0.2645611128772 -0.2717569679872 1.0
Ag     2 -0.2001707234949  0.2645611128772  0.2282430320128 1.0
Ag     2 -0.4762129933950 -0.4732637658865  0.4076728245457 1.0
Ag     2 -0.4762129933950  0.4732637658865 -0.0923271754543 1.0
END
