TITL 4Ag2Se_TETRA-200803-163905-3a175f -0.0209 233.235247 -4.61172558E+004 0 0 12 (P21) n - 1
REM
REM Run started: Mon, 03 Aug 2020 17:01:15 +0100 in /lustre/scratch/uccabz1/launch_tmp/launcher_2020-08-03-15-39-03-232976
REM CASTEP 20.1 from code version af48c487+ pr-geom-scf-spinfix Tue Jun 2 15:39:59 2020 +0100
REM Functional PBE for solids (2008) Relativity Koelling-Harmon Dispersion off
REM Cut-off 300.0000 eV Grid scale 1.7500 Gmax 15.5288 1/A FBSC none
REM MP grid 3 3 2 Offset 0.000 0.000 0.000 No. kpts 5 Spacing 0.07
REM Total runtime: 1458.29 s
REM Overall efficiency: 72.1667 %
REM
REM 4Ag2Se_TETRA.cell (4020362940262d3df87d4014b41eb05e)
REM
REM compiler GCC version 4.9.2
REM options -cpp -iprefix /lustre/shared/ucl/apps/gcc/4.9.2/bin/../lib/gcc/x86_64-unknown-linux-gnu/4.9.2/ -mtune=corei7 -march=x86-64 -g -Og
REM COMMAND_LINE
REM seed 920241997 -1549460715 -1163068351 -1950619648 761897810 1073643310 -203763483 -1972147727 1494980493 1251431935 1688221838 -2093532092
REM
REM Se 3|2.1|7|7|9|40:41:32(qc=5)
REM Ag 3|2.2|7|7|9|40U:50:41:42(qc=5)
REM 
CELL 1.54180    5.29316    5.31821    8.29334   90.00000   90.00000   92.50670
LATT -1
SFAC Se Ag 
Se     1 -0.2975499493256  0.3113639687463  0.2608540539009 1.0
Se     1  0.2975499493256 -0.3113639687463 -0.2391459460991 1.0
Se     1 -0.1591463905911  0.1636294457028 -0.1443044292170 1.0
Se     1  0.1591463905911 -0.1636294457028  0.3556955707830 1.0
Ag     2  0.4778167708677  0.4280164668770 -0.0112894454989 1.0
Ag     2 -0.4778167708677 -0.4280164668770  0.4887105545011 1.0
Ag     2 -0.1942941429452 -0.3107264702550 -0.2364033514958 1.0
Ag     2  0.1942941429452  0.3107264702550  0.2635966485042 1.0
Ag     2  0.4756384817989 -0.0835343477989  0.1060498747422 1.0
Ag     2 -0.4756384817989  0.0835343477989 -0.3939501252578 1.0
Ag     2  0.0430104652476  0.3173598094779 -0.4201273024314 1.0
Ag     2 -0.0430104652476 -0.3173598094779  0.0798726975686 1.0
END
