TITL 4Ag2Se_TETRA-200803-170114-97cd19 0.0484 229.847351 -4.61169064E+004 0 0 12 (C2) n - 1
REM
REM Run started: Mon, 03 Aug 2020 17:29:49 +0100 in /lustre/scratch/uccabz1/launch_tmp/launcher_2020-08-03-16-01-13-075329
REM CASTEP 20.1 from code version af48c487+ pr-geom-scf-spinfix Tue Jun 2 15:39:59 2020 +0100
REM Functional PBE for solids (2008) Relativity Koelling-Harmon Dispersion off
REM Cut-off 300.0000 eV Grid scale 1.7500 Gmax 15.5288 1/A FBSC none
REM MP grid 3 3 2 Offset 0.000 0.000 0.000 No. kpts 6 Spacing 0.07
REM Total runtime: 1844.89 s
REM Overall efficiency: 79.25 %
REM
REM 4Ag2Se_TETRA.cell (4020362940262d3df87d4014b41eb05e)
REM
REM compiler GCC version 4.9.2
REM options -cpp -iprefix /lustre/shared/ucl/apps/gcc/4.9.2/bin/../lib/gcc/x86_64-unknown-linux-gnu/4.9.2/ -mtune=corei7 -march=x86-64 -g -Og
REM COMMAND_LINE
REM seed 1591597817 -317710881 -680471182 -1613056411 1621493404 -1869004591 769151354 1249418469 -758195797 -830687761 -663915506 -656138579
REM
REM Se 3|2.1|7|7|9|40:41:32(qc=5)
REM Ag 3|2.2|7|7|9|40U:50:41:42(qc=5)
REM 
CELL 1.54180    5.64246    5.64246    7.21994   90.06927   90.06927   90.67186
LATT -1
SFAC Se Ag 
Se     1  0.1548808960690  0.3352091092649  0.0067639793551 1.0
Se     1 -0.3352091092649 -0.1548808960690 -0.0067639793551 1.0
Se     1  0.3962543555718  0.0776090540539 -0.4879707246060 1.0
Se     1 -0.0776090540539 -0.3962543555718  0.4879707246060 1.0
Ag     2 -0.4775718855098 -0.3229012957040 -0.3360826915369 1.0
Ag     2  0.3229012957040  0.4775718855098  0.3360826915369 1.0
Ag     2 -0.4435931733160  0.2470894807618 -0.1634605779289 1.0
Ag     2 -0.2470894807618  0.4435931733160  0.1634605779289 1.0
Ag     2 -0.1965259446651  0.0080653403315  0.3312236722450 1.0
Ag     2 -0.0080653403315  0.1965259446651 -0.3312236722450 1.0
Ag     2  0.0804555820881 -0.2543737584700 -0.1729810792770 1.0
Ag     2  0.2543737584700 -0.0804555820881  0.1729810792770 1.0
END
