TITL 4Ag2Se_TETRA_OPT-200811-114643-4cd644 0.0604 223.934692 -4.61184253E+004 0 0 12 (P1) n - 1
REM
REM Run started: Tue, 11 Aug 2020 12:31:20 +0100 in /lustre/scratch/uccabz1/launch_tmp/launcher_2020-08-11-10-46-41-514789
REM CASTEP 20.1 from code version af48c487+ pr-geom-scf-spinfix Tue Jun 2 15:39:59 2020 +0100
REM Functional PBE for solids (2008) Relativity Koelling-Harmon Dispersion off
REM Cut-off 300.0000 eV Grid scale 1.7500 Gmax 15.5288 1/A FBSC none
REM MP grid 3 3 3 Offset 0.000 0.000 0.000 No. kpts 14 Spacing 0.07
REM Total runtime: 2844.98 s
REM Overall efficiency: 93.1429 %
REM
REM 4Ag2Se_TETRA_OPT.cell (db6eaae92e6a5f18c152ebab86a92a61)
REM
REM compiler GCC version 4.9.2
REM options -cpp -iprefix /lustre/shared/ucl/apps/gcc/4.9.2/bin/../lib/gcc/x86_64-unknown-linux-gnu/4.9.2/ -mtune=corei7 -march=x86-64 -g -Og
REM COMMAND_LINE
REM seed 1624556628 -287407537 -1073335075 499559914 -464621430 -911924651 1477830392 373984292 -1708285199 294442085 284409786 264459254
REM
REM Se 3|2.1|7|7|9|40:41:32(qc=5)
REM Ag 3|2.2|7|7|9|40U:50:41:42(qc=5)
REM 
CELL 1.54180    5.01587    6.93187    6.46532   86.16357   87.12520   88.33658
LATT -1
SFAC Se Ag 
Se     1 -0.5412116352297  0.3679858871624 -0.0705149919700 1.0
Se     1 -0.4591403069397 -0.0399554822617  0.3965015160594 1.0
Se     1  0.0642369111568 -0.1244988876869 -0.0403124051264 1.0
Se     1 -0.0287988835061  0.4586578047621  0.4279967336754 1.0
Ag     2  0.1038190615675  0.1561325174640 -0.3361802599097 1.0
Ag     2 -0.5156113901482  0.3486805797805  0.3534777243484 1.0
Ag     2 -0.3969200186420  0.0121509236759 -0.1959999627641 1.0
Ag     2  0.0449702570971 -0.1604071206933  0.4072618247687 1.0
Ag     2  0.4724832947915 -0.3507353933558 -0.3585538852821 1.0
Ag     2  0.0024547375021  0.1974113273002  0.1517201912098 1.0
Ag     2 -0.0450876476720 -0.4803193182924 -0.1545850493075 1.0
Ag     2 -0.4431796799774 -0.2990440378550  0.1094690642981 1.0
END
