TITL 4Ag2Se_TETRA_OPT-200811-090526-28ae04 0.2205 224.263937 -4.61184315E+004 0 0 12 (P21) n - 1
REM
REM Run started: Tue, 11 Aug 2020 10:25:15 +0100 in /lustre/scratch/uccabz1/launch_tmp/launcher_2020-08-11-08-05-24-871585
REM CASTEP 20.1 from code version af48c487+ pr-geom-scf-spinfix Tue Jun 2 15:39:59 2020 +0100
REM Functional PBE for solids (2008) Relativity Koelling-Harmon Dispersion off
REM Cut-off 300.0000 eV Grid scale 1.7500 Gmax 15.5288 1/A FBSC none
REM MP grid 3 3 3 Offset 0.000 0.000 0.000 No. kpts 10 Spacing 0.07
REM Total runtime: 5438.68 s
REM Overall efficiency: 86.1667 %
REM
REM 4Ag2Se_TETRA_OPT.cell (db6eaae92e6a5f18c152ebab86a92a61)
REM
REM compiler GCC version 4.9.2
REM options -cpp -iprefix /lustre/shared/ucl/apps/gcc/4.9.2/bin/../lib/gcc/x86_64-unknown-linux-gnu/4.9.2/ -mtune=corei7 -march=x86-64 -g -Og
REM COMMAND_LINE
REM seed -684957086 1535578008 -1008521973 -993531397 272277898 82409338 1824334666 1727650797 545442774 -709932842 1571775351 820063239
REM
REM Se 3|2.1|7|7|9|40:41:32(qc=5)
REM Ag 3|2.2|7|7|9|40U:50:41:42(qc=5)
REM 
CELL 1.54180    4.84846    6.71193    6.91021   90.00000   85.77241   90.00000
LATT -1
SFAC Se Ag 
Se     1 -0.2164587601693 -0.0289269999208 -0.1052708970927 1.0
Se     1  0.2164587601693 -0.5289269999208  0.1052708970927 1.0
Se     1 -0.3645021814187  0.4389196114206  0.4747604893613 1.0
Se     1  0.3645021814187 -0.0610803885794 -0.4747604893613 1.0
Ag     2 -0.3170341288087 -0.3260291735303  0.1433395906984 1.0
Ag     2  0.3170341288087  0.1739708264697 -0.1433395906984 1.0
Ag     2 -0.3263101447594  0.1119111829407  0.2339162302766 1.0
Ag     2  0.3263101447594 -0.3880888170593 -0.2339162302766 1.0
Ag     2  0.0899712893572  0.2509025117263 -0.5217351311604 1.0
Ag     2 -0.0899712893572 -0.2490974882737  0.5217351311604 1.0
Ag     2 -0.1842646359706  0.4020104673635 -0.1615369776639 1.0
Ag     2  0.1842646359706 -0.0979895326365  0.1615369776639 1.0
END
