TITL 4Ag2Se_TETRA-200803-163742-805328 -0.0094 233.071826 -4.61179205E+004 0 0 12 (P2) n - 1
REM
REM Run started: Mon, 03 Aug 2020 17:20:15 +0100 in /lustre/scratch/uccabz1/launch_tmp/launcher_2020-08-03-15-37-40-877608
REM CASTEP 20.1 from code version af48c487+ pr-geom-scf-spinfix Tue Jun 2 15:39:59 2020 +0100
REM Functional PBE for solids (2008) Relativity Koelling-Harmon Dispersion off
REM Cut-off 300.0000 eV Grid scale 1.7500 Gmax 15.5288 1/A FBSC none
REM MP grid 3 3 3 Offset 0.000 0.000 0.000 No. kpts 10 Spacing 0.07
REM Total runtime: 2782.62 s
REM Overall efficiency: 91 %
REM
REM 4Ag2Se_TETRA.cell (4020362940262d3df87d4014b41eb05e)
REM
REM compiler GCC version 4.9.2
REM options -cpp -iprefix /lustre/shared/ucl/apps/gcc/4.9.2/bin/../lib/gcc/x86_64-unknown-linux-gnu/4.9.2/ -mtune=corei7 -march=x86-64 -g -Og
REM COMMAND_LINE
REM seed 1510643823 166572129 1935979662 1489489337 1750078099 127439888 1230931228 -1274257593 1804330893 -423558781 -1053988566 -1534622533
REM
REM Se 3|2.1|7|7|9|40:41:32(qc=5)
REM Ag 3|2.2|7|7|9|40U:50:41:42(qc=5)
REM 
CELL 1.54180    6.79125    6.74551    5.09625   90.00000   93.31096   90.00000
LATT -1
SFAC Se Ag 
Se     1 -0.2094228115247 -0.0607248559703  0.2353296167631 1.0
Se     1  0.2094228115247 -0.0607248559703 -0.2353296167631 1.0
Se     1 -0.2379702213542  0.4203322945415 -0.3294916182590 1.0
Se     1  0.2379702213542  0.4203322945415  0.3294916182590 1.0
Ag     2 -0.4221431533021 -0.3843932361752  0.2478548496514 1.0
Ag     2  0.4221431533021 -0.3843932361752 -0.2478548496514 1.0
Ag     2 -0.1424123294101  0.3268967734129  0.1783720108515 1.0
Ag     2  0.1424123294101  0.3268967734129 -0.1783720108515 1.0
Ag     2 -0.4378754555880  0.1013562768681 -0.2441505367846 1.0
Ag     2  0.4378754555880  0.1013562768681  0.2441505367846 1.0
Ag     2  0.1697608118117 -0.1975269526770  0.2575306456147 1.0
Ag     2 -0.1697608118117 -0.1975269526770 -0.2575306456147 1.0
END
