TITL 4Ag2Se_TETRA-200803-164845-b75394 0.0193 257.466893 -4.61171275E+004 0 0 12 (R3) n - 1
REM
REM Run started: Mon, 03 Aug 2020 17:16:17 +0100 in /lustre/scratch/uccabz1/launch_tmp/launcher_2020-08-03-15-48-43-727077
REM CASTEP 20.1 from code version af48c487+ pr-geom-scf-spinfix Tue Jun 2 15:39:59 2020 +0100
REM Functional PBE for solids (2008) Relativity Koelling-Harmon Dispersion off
REM Cut-off 300.0000 eV Grid scale 1.7500 Gmax 15.5288 1/A FBSC none
REM MP grid 3 3 3 Offset 0.000 0.000 0.000 No. kpts 6 Spacing 0.07
REM Total runtime: 1802.85 s
REM Overall efficiency: 65.4167 %
REM
REM 4Ag2Se_TETRA.cell (4020362940262d3df87d4014b41eb05e)
REM
REM compiler GCC version 4.9.2
REM options -cpp -iprefix /lustre/shared/ucl/apps/gcc/4.9.2/bin/../lib/gcc/x86_64-unknown-linux-gnu/4.9.2/ -mtune=corei7 -march=x86-64 -g -Og
REM COMMAND_LINE
REM seed -1445504571 -35647621 864252313 -569953846 -1804757894 -1123383796 -1797535853 941783531 1576435617 -1749745588 -1394141478 1049012257
REM
REM Se 3|2.1|7|7|9|40:41:32(qc=5)
REM Ag 3|2.2|7|7|9|40U:50:41:42(qc=5)
REM 
CELL 1.54180    6.36194    6.36194    6.36194   90.49189   90.49189   90.49189
LATT -1
SFAC Se Ag 
Se     1 -0.2736424150951  0.1911827744787  0.1407797999362 1.0
Se     1  0.1407797999362 -0.2736424150951  0.1911827744787 1.0
Se     1  0.1911827744787  0.1407797999362 -0.2736424150951 1.0
Se     1 -0.4156096403781 -0.4156096403781 -0.4156096403781 1.0
Ag     2 -0.4917145881753  0.1709870492441  0.4687506897651 1.0
Ag     2  0.4687506897651 -0.4917145881753  0.1709870492441 1.0
Ag     2  0.1709870492441  0.4687506897651 -0.4917145881753 1.0
Ag     2 -0.1947207850306 -0.4874345544180 -0.0894238724728 1.0
Ag     2 -0.0894238724728 -0.1947207850306 -0.4874345544180 1.0
Ag     2 -0.4874345544180 -0.0894238724728 -0.1947207850306 1.0
Ag     2  0.1732115598009  0.1732115598009  0.1732115598009 1.0
Ag     2 -0.0837145176551 -0.0837145176551 -0.0837145176551 1.0
END
