TITL 4Ag2SE-200803-155109-1260c7 0.0085 214.755291 -4.61184569E+004 0 0 12 (C2/m) n - 1
REM
REM Run started: Mon, 03 Aug 2020 18:00:36 +0100 in /lustre/scratch/uccabz1/launch_tmp/launcher_2020-08-03-14-51-07-554307
REM CASTEP 20.1 from code version af48c487+ pr-geom-scf-spinfix Tue Jun 2 15:39:59 2020 +0100
REM Functional PBE for solids (2008) Relativity Koelling-Harmon Dispersion off
REM Cut-off 300.0000 eV Grid scale 1.7500 Gmax 15.5288 1/A FBSC none
REM MP grid 4 4 2 Offset 0.000 0.000 0.000 No. kpts 14 Spacing 0.07
REM Total runtime: 8606.91 s
REM Overall efficiency: 94.8333 %
REM
REM 4Ag2SE.cell (6404a18c6b5dc90313b5c56acf317f23)
REM
REM compiler GCC version 4.9.2
REM options -cpp -iprefix /lustre/shared/ucl/apps/gcc/4.9.2/bin/../lib/gcc/x86_64-unknown-linux-gnu/4.9.2/ -mtune=corei7 -march=x86-64 -g -Og
REM COMMAND_LINE
REM seed -1347632756 -719755330 -420504469 -577693415 1039362276 -361049750 377529666 1406243833 796472162 -909201783 248377570 -1073906235
REM
REM Se 3|2.1|7|7|9|40:41:32(qc=5)
REM Ag 3|2.2|7|7|9|40U:50:41:42(qc=5)
REM 
CELL 1.54180    4.45443    4.45443   12.06469   89.78135  103.55870  112.04639
LATT -1
SFAC Se Ag 
Se     1  0.1283432379932 -0.0825273978502  0.0464618449093 1.0
Se     1 -0.3710107572405 -0.0818813930839 -0.4535381550907 1.0
Se     1 -0.1915494543544 -0.4697110744646  0.3392971005218 1.0
Se     1  0.3090081749864 -0.4691534451238 -0.1607028994782 1.0
Ag     2 -0.5278286714171  0.2229648215835 -0.3054475338551 1.0
Ag     2 -0.0284123554387  0.2223811375620  0.1945524661449 1.0
Ag     2  0.2179341320369  0.2267571213123 -0.5553570101733 1.0
Ag     2 -0.2821141314856  0.2267088577898 -0.0553570101733 1.0
Ag     2 -0.0899079431471 -0.1181553566872 -0.2090060247457 1.0
Ag     2  0.4091493319415 -0.1190980815986  0.2909939752543 1.0
Ag     2 -0.4708781124673 -0.4302327252498  0.0992743233430 1.0
Ag     2  0.0295070485929 -0.4298475641897 -0.4007256766570 1.0
END
