TITL 4Ag2Se_TETRA_OPT-200811-111836-1d0261 -0.0139 230.419855 -4.61182605E+004 0 0 12 (P1) n - 1
REM
REM Run started: Tue, 11 Aug 2020 13:53:34 +0100 in /lustre/scratch/uccabz1/launch_tmp/launcher_2020-08-11-10-18-34-581214
REM CASTEP 20.1 from code version af48c487+ pr-geom-scf-spinfix Tue Jun 2 15:39:59 2020 +0100
REM Functional PBE for solids (2008) Relativity Koelling-Harmon Dispersion off
REM Cut-off 300.0000 eV Grid scale 1.7500 Gmax 15.5288 1/A FBSC none
REM MP grid 3 3 3 Offset 0.000 0.000 0.000 No. kpts 14 Spacing 0.07
REM Total runtime: 9462.06 s
REM Overall efficiency: 90 %
REM
REM 4Ag2Se_TETRA_OPT.cell (db6eaae92e6a5f18c152ebab86a92a61)
REM
REM compiler GCC version 4.9.2
REM options -cpp -iprefix /lustre/shared/ucl/apps/gcc/4.9.2/bin/../lib/gcc/x86_64-unknown-linux-gnu/4.9.2/ -mtune=corei7 -march=x86-64 -g -Og
REM COMMAND_LINE
REM seed 631933150 -112222222 1252936823 -560413666 2082938530 -105403378 1237607339 -665757731 463689300 317912752 1355418274 1195838171
REM
REM Se 3|2.1|7|7|9|40:41:32(qc=5)
REM Ag 3|2.2|7|7|9|40U:50:41:42(qc=5)
REM 
CELL 1.54180    5.03264    6.47275    7.15254   98.05802   88.19584   88.14598
LATT -1
SFAC Se Ag 
Se     1 -0.1415887332870 -0.4139978584157  0.0134517911092 1.0
Se     1 -0.0284240293045  0.0563206631456  0.4583958616401 1.0
Se     1  0.3905449903857 -0.4910090317007 -0.5724075987164 1.0
Se     1 -0.4243319421803  0.0248944861593 -0.0715007261464 1.0
Ag     2  0.0928594227027  0.1030564603490 -0.1809712403735 1.0
Ag     2 -0.1176258947909 -0.3558040047427  0.4263525757336 1.0
Ag     2  0.3589940887109  0.4090693075599  0.0429134982703 1.0
Ag     2 -0.1215518499454  0.2549365771183  0.1858023125535 1.0
Ag     2  0.4744184426632 -0.0614732595130 -0.4687635413359 1.0
Ag     2 -0.3146222908328  0.3747587504639 -0.3095790989996 1.0
Ag     2  0.1973888223264 -0.3509227574093 -0.2439915667918 1.0
Ag     2  0.2372075735519 -0.1396808330147  0.1445497330569 1.0
END
