TITL 4Ag2Se_TETRA_OPT-200811-110322-fc1404 -0.0144 227.296089 -4.61184256E+004 0 0 12 (P1) n - 1
REM
REM Run started: Tue, 11 Aug 2020 12:46:02 +0100 in /lustre/scratch/uccabz1/launch_tmp/launcher_2020-08-11-10-03-21-152951
REM CASTEP 20.1 from code version af48c487+ pr-geom-scf-spinfix Tue Jun 2 15:39:59 2020 +0100
REM Functional PBE for solids (2008) Relativity Koelling-Harmon Dispersion off
REM Cut-off 300.0000 eV Grid scale 1.7500 Gmax 15.5288 1/A FBSC none
REM MP grid 3 3 3 Offset 0.000 0.000 0.000 No. kpts 14 Spacing 0.07
REM Total runtime: 6194.59 s
REM Overall efficiency: 92.3636 %
REM
REM 4Ag2Se_TETRA_OPT.cell (db6eaae92e6a5f18c152ebab86a92a61)
REM
REM compiler GCC version 4.9.2
REM options -cpp -iprefix /lustre/shared/ucl/apps/gcc/4.9.2/bin/../lib/gcc/x86_64-unknown-linux-gnu/4.9.2/ -mtune=corei7 -march=x86-64 -g -Og
REM COMMAND_LINE
REM seed -1107281255 -826759310 -1524880954 1719626765 -1530254526 -264591149 -1981609899 -887069706 -469444350 1139038523 1270508784 1977103460
REM
REM Se 3|2.1|7|7|9|40:41:32(qc=5)
REM Ag 3|2.2|7|7|9|40U:50:41:42(qc=5)
REM 
CELL 1.54180    5.31939    6.07604    7.05069   92.81867   91.44434   87.30187
LATT -1
SFAC Se Ag 
Se     1  0.3209125047434 -0.4447175393666  0.0706368661654 1.0
Se     1  0.1686898561016 -0.0419065702269  0.4498378849267 1.0
Se     1 -0.3025140844600  0.4627854200895  0.5167117976589 1.0
Se     1 -0.3195885501534  0.0005355371190  0.0438272776114 1.0
Ag     2 -0.3453034536157  0.0226798595717  0.4356776217155 1.0
Ag     2 -0.1635139321653 -0.3608740392817  0.2015415061108 1.0
Ag     2  0.2016884907462 -0.5198287842669 -0.5369730754261 1.0
Ag     2  0.0872070729399  0.2084498895022  0.1341348990926 1.0
Ag     2 -0.5474981393539 -0.2215801506407 -0.2540118699005 1.0
Ag     2 -0.0354753269111  0.0454818304419 -0.2338899022337 1.0
Ag     2 -0.0375106681299 -0.4468639272706 -0.1818791581441 1.0
Ag     2  0.4274372302582  0.2579837743290 -0.2164196475768 1.0
END
