TITL 4Ag2Se_TETRA_OPT-200811-112446-26b012 -0.0859 225.440745 -4.61185176E+004 0 0 12 (P1) n - 1
REM
REM Run started: Tue, 11 Aug 2020 14:03:13 +0100 in /lustre/scratch/uccabz1/launch_tmp/launcher_2020-08-11-10-24-42-425334
REM CASTEP 20.1 from code version af48c487+ pr-geom-scf-spinfix Tue Jun 2 15:39:59 2020 +0100
REM Functional PBE for solids (2008) Relativity Koelling-Harmon Dispersion off
REM Cut-off 300.0000 eV Grid scale 1.7500 Gmax 15.5288 1/A FBSC none
REM MP grid 4 3 3 Offset 0.000 0.000 0.000 No. kpts 18 Spacing 0.07
REM Total runtime: 10564.2 s
REM Overall efficiency: 95.1667 %
REM
REM 4Ag2Se_TETRA_OPT.cell (db6eaae92e6a5f18c152ebab86a92a61)
REM
REM compiler GCC version 4.9.2
REM options -cpp -iprefix /lustre/shared/ucl/apps/gcc/4.9.2/bin/../lib/gcc/x86_64-unknown-linux-gnu/4.9.2/ -mtune=corei7 -march=x86-64 -g -Og
REM COMMAND_LINE
REM seed 635017798 375127052 -708331473 -2015506817 719521960 1088595185 513058551 608589862 1317338059 234508994 -1398355305 905797678
REM
REM Se 3|2.1|7|7|9|40:41:32(qc=5)
REM Ag 3|2.2|7|7|9|40U:50:41:42(qc=5)
REM 
CELL 1.54180    4.61998    7.02479    7.08745   95.26733   85.81773   81.16190
LATT -1
SFAC Se Ag 
Se     1  0.2711464278660  0.1166888864301 -0.0406360752688 1.0
Se     1 -0.3172597980521  0.1244281603714  0.4625146255486 1.0
Se     1  0.2039260125420 -0.4023369948227 -0.3447673663424 1.0
Se     1 -0.4097498811554 -0.3142802619537  0.1271826543991 1.0
Ag     2 -0.2670716581161 -0.3568316417884  0.4752996458924 1.0
Ag     2  0.2515361533308 -0.0452833456944 -0.4097403706582 1.0
Ag     2  0.1534367422582 -0.4938330357440  0.0243347030482 1.0
Ag     2  0.1622665208106  0.3095488222270  0.3772829625935 1.0
Ag     2 -0.3150066077328  0.3016955236850  0.1440895685435 1.0
Ag     2 -0.2168935242750 -0.1143725897456 -0.1587306692676 1.0
Ag     2 -0.1525039112241  0.3098618024555 -0.2421307218638 1.0
Ag     2  0.0539843237479 -0.1046185254202  0.2141370433756 1.0
END
