TITL 4Ag2Se_TETRA-200803-163305-6bfeb7 -0.0188 240.675745 -4.61159371E+004 0 0 12 (C2/c) n - 1
REM
REM Run started: Mon, 03 Aug 2020 17:13:30 +0100 in /lustre/scratch/uccabz1/launch_tmp/launcher_2020-08-03-15-33-03-843483
REM CASTEP 20.1 from code version af48c487+ pr-geom-scf-spinfix Tue Jun 2 15:39:59 2020 +0100
REM Functional PBE for solids (2008) Relativity Koelling-Harmon Dispersion off
REM Cut-off 300.0000 eV Grid scale 1.7500 Gmax 15.5288 1/A FBSC none
REM MP grid 3 3 3 Offset 0.000 0.000 0.000 No. kpts 10 Spacing 0.07
REM Total runtime: 2663.66 s
REM Overall efficiency: 90.3333 %
REM
REM 4Ag2Se_TETRA.cell (4020362940262d3df87d4014b41eb05e)
REM
REM compiler GCC version 4.9.2
REM options -cpp -iprefix /lustre/shared/ucl/apps/gcc/4.9.2/bin/../lib/gcc/x86_64-unknown-linux-gnu/4.9.2/ -mtune=corei7 -march=x86-64 -g -Og
REM COMMAND_LINE
REM seed -1147839629 663865125 -1426291437 1151379293 -1163739215 1989645922 128311563 -1270014706 2022680827 893871363 928422252 -1105271035
REM
REM Se 3|2.1|7|7|9|40:41:32(qc=5)
REM Ag 3|2.2|7|7|9|40U:50:41:42(qc=5)
REM 
CELL 1.54180    6.28444    6.18857    6.18857   90.33297   89.75597   89.75597
LATT -1
SFAC Se Ag 
Se     1 -0.2344070479552 -0.1665445864842 -0.4075647746523 1.0
Se     1 -0.2655929520448  0.4075647746523  0.1665445864842 1.0
Se     1  0.2344070479552  0.1665445864842  0.4075647746523 1.0
Se     1  0.2655929520448 -0.4075647746523 -0.1665445864842 1.0
Ag     2 -0.3679133237289  0.2189714062778  0.5114003208049 1.0
Ag     2 -0.1320866762711 -0.5114003208049 -0.2189714062778 1.0
Ag     2  0.3679133237289 -0.2189714062778 -0.5114003208049 1.0
Ag     2  0.1320866762711  0.5114003208049  0.2189714062778 1.0
Ag     2  0.4465708223647  0.2160493358604 -0.0647800671832 1.0
Ag     2  0.0534291776353  0.0647800671832 -0.2160493358604 1.0
Ag     2 -0.4465708223647 -0.2160493358604  0.0647800671832 1.0
Ag     2 -0.0534291776353 -0.0647800671832  0.2160493358604 1.0
END
