TITL 4Ag2Se_TETRA-200803-164328-4d1d55 0.0370 245.523326 -4.61175197E+004 0 0 12 (R3) n - 1
REM
REM Run started: Mon, 03 Aug 2020 17:08:31 +0100 in /lustre/scratch/uccabz1/launch_tmp/launcher_2020-08-03-15-43-26-751328
REM CASTEP 20.1 from code version af48c487+ pr-geom-scf-spinfix Tue Jun 2 15:39:59 2020 +0100
REM Functional PBE for solids (2008) Relativity Koelling-Harmon Dispersion off
REM Cut-off 300.0000 eV Grid scale 1.7500 Gmax 15.5288 1/A FBSC none
REM MP grid 3 3 3 Offset 0.000 0.000 0.000 No. kpts 6 Spacing 0.07
REM Total runtime: 1645.7 s
REM Overall efficiency: 64.6667 %
REM
REM 4Ag2Se_TETRA.cell (4020362940262d3df87d4014b41eb05e)
REM
REM compiler GCC version 4.9.2
REM options -cpp -iprefix /lustre/shared/ucl/apps/gcc/4.9.2/bin/../lib/gcc/x86_64-unknown-linux-gnu/4.9.2/ -mtune=corei7 -march=x86-64 -g -Og
REM COMMAND_LINE
REM seed 189385392 -566595835 2116114484 -218683036 91960302 146216172 1222027548 2139916434 1669178328 -1862674644 1202665187 2003951619
REM
REM Se 3|2.1|7|7|9|40:41:32(qc=5)
REM Ag 3|2.2|7|7|9|40U:50:41:42(qc=5)
REM 
CELL 1.54180    6.26180    6.26180    6.26180   89.85658   89.85658   89.85658
LATT -1
SFAC Se Ag 
Se     1 -0.4622276410663  0.4265925635332 -0.0202065815115 1.0
Se     1 -0.0202065815115 -0.4622276410663  0.4265925635332 1.0
Se     1  0.4265925635332 -0.0202065815115 -0.4622276410663 1.0
Se     1 -0.0836834987001 -0.0836834987001 -0.0836834987001 1.0
Ag     2 -0.4333011726236 -0.0557227132584  0.1316023946852 1.0
Ag     2  0.1316023946852 -0.4333011726236 -0.0557227132584 1.0
Ag     2 -0.0557227132584  0.1316023946852 -0.4333011726236 1.0
Ag     2 -0.1123386459653  0.2551401504013  0.1539719339339 1.0
Ag     2  0.1539719339339 -0.1123386459653  0.2551401504013 1.0
Ag     2  0.2551401504013  0.1539719339339 -0.1123386459653 1.0
Ag     2  0.3725693055735  0.3725693055735  0.3725693055735 1.0
Ag     2 -0.3320598950020 -0.3320598950020 -0.3320598950020 1.0
END
