TITL 4Ag2SE-200803-154818-87e953 0.0451 232.528123 -4.61183167E+004 0 0 12 (Cc) n - 1
REM
REM Run started: Mon, 03 Aug 2020 17:29:57 +0100 in /lustre/scratch/uccabz1/launch_tmp/launcher_2020-08-03-14-48-16-591672
REM CASTEP 20.1 from code version af48c487+ pr-geom-scf-spinfix Tue Jun 2 15:39:59 2020 +0100
REM Functional PBE for solids (2008) Relativity Koelling-Harmon Dispersion off
REM Cut-off 300.0000 eV Grid scale 1.7500 Gmax 15.5288 1/A FBSC none
REM MP grid 4 4 2 Offset 0.000 0.000 0.000 No. kpts 16 Spacing 0.07
REM Total runtime: 6575.1 s
REM Overall efficiency: 93.2222 %
REM
REM 4Ag2SE.cell (6404a18c6b5dc90313b5c56acf317f23)
REM
REM compiler GCC version 4.9.2
REM options -cpp -iprefix /lustre/shared/ucl/apps/gcc/4.9.2/bin/../lib/gcc/x86_64-unknown-linux-gnu/4.9.2/ -mtune=corei7 -march=x86-64 -g -Og
REM COMMAND_LINE
REM seed -1867178236 172727322 221790723 1250420394 282891632 -675983287 -1949012543 76350607 -1870752032 -1522765493 1958939538 -910410064
REM
REM Se 3|2.1|7|7|9|40:41:32(qc=5)
REM Ag 3|2.2|7|7|9|40U:50:41:42(qc=5)
REM 
CELL 1.54180    4.35354    4.58796   13.31544   84.11768   90.00000  118.32374
LATT -1
SFAC Se Ag 
Se     1  0.4500880371048 -0.3607695421199  0.0546510628557 1.0
Se     1 -0.3108575792247 -0.3607695421199 -0.4453489371443 1.0
Se     1 -0.0001842850948  0.2416612827914 -0.1401676950198 1.0
Se     1 -0.2581544321138  0.2416612827914  0.3598323049802 1.0
Ag     2  0.4577369228146 -0.3434533844377  0.2526194342939 1.0
Ag     2 -0.3011903072523 -0.3434533844377 -0.2473805657061 1.0
Ag     2  0.0747393731471 -0.1029137476112  0.3613407502850 1.0
Ag     2  0.3223468792417 -0.1029137476112 -0.1386592497150 1.0
Ag     2  0.3663386383769 -0.0036669839176 -0.4255681417734 1.0
Ag     2  0.1299943777055 -0.0036669839176  0.0744318582266 1.0
Ag     2  0.0295555190328  0.3266862752950 -0.3370663106414 1.0
Ag     2 -0.2028692437379  0.3266862752950  0.1629336893586 1.0
END
