TITL 4Ag2Se_TETRA-200803-161920-3be43c -0.0401 231.008709 -4.61181274E+004 0 0 12 (R3) n - 1
REM
REM Run started: Mon, 03 Aug 2020 16:42:12 +0100 in /lustre/scratch/uccabz1/launch_tmp/launcher_2020-08-03-15-19-18-779535
REM CASTEP 20.1 from code version af48c487+ pr-geom-scf-spinfix Tue Jun 2 15:39:59 2020 +0100
REM Functional PBE for solids (2008) Relativity Koelling-Harmon Dispersion off
REM Cut-off 300.0000 eV Grid scale 1.7500 Gmax 15.5288 1/A FBSC none
REM MP grid 3 3 3 Offset 0.000 0.000 0.000 No. kpts 6 Spacing 0.07
REM Total runtime: 1509.03 s
REM Overall efficiency: 64.1667 %
REM
REM 4Ag2Se_TETRA.cell (4020362940262d3df87d4014b41eb05e)
REM
REM compiler GCC version 4.9.2
REM options -cpp -iprefix /lustre/shared/ucl/apps/gcc/4.9.2/bin/../lib/gcc/x86_64-unknown-linux-gnu/4.9.2/ -mtune=corei7 -march=x86-64 -g -Og
REM COMMAND_LINE
REM seed 252872033 469894231 172121065 -399062308 883194697 1164418835 27443773 1414212002 -296070873 292836453 -553039877 1985881748
REM
REM Se 3|2.1|7|7|9|40:41:32(qc=5)
REM Ag 3|2.2|7|7|9|40U:50:41:42(qc=5)
REM 
CELL 1.54180    6.13649    6.13649    6.13649   90.80787   90.80787   90.80787
LATT -1
SFAC Se Ag 
Se     1 -0.1398584236691  0.2850041204947 -0.2522781362175 1.0
Se     1  0.2850041204947 -0.2522781362175 -0.1398584236691 1.0
Se     1 -0.2522781362175 -0.1398584236691  0.2850041204947 1.0
Se     1  0.3487150180467  0.3487150180467  0.3487150180467 1.0
Ag     2 -0.4992906446595  0.0502565454984 -0.3430243721777 1.0
Ag     2  0.0502565454984 -0.3430243721777 -0.4992906446595 1.0
Ag     2 -0.3430243721777 -0.4992906446595  0.0502565454984 1.0
Ag     2 -0.0680187393712  0.2431080909525  0.3089671576333 1.0
Ag     2  0.2431080909525  0.3089671576333 -0.0680187393712 1.0
Ag     2  0.3089671576333 -0.0680187393712  0.2431080909525 1.0
Ag     2 -0.1202448945987 -0.1202448945987 -0.1202448945987 1.0
Ag     2 -0.3987861219318 -0.3987861219318 -0.3987861219318 1.0
END
