TITL 4Ag2SE-200803-160656-2529b8 0.0249 220.733844 -4.61186098E+004 0 0 12 (P21) n - 1
REM
REM Run started: Mon, 03 Aug 2020 17:19:37 +0100 in /lustre/scratch/uccabz1/launch_tmp/launcher_2020-08-03-15-06-55-112050
REM CASTEP 20.1 from code version af48c487+ pr-geom-scf-spinfix Tue Jun 2 15:39:59 2020 +0100
REM Functional PBE for solids (2008) Relativity Koelling-Harmon Dispersion off
REM Cut-off 300.0000 eV Grid scale 1.7500 Gmax 15.5288 1/A FBSC none
REM MP grid 3 3 3 Offset 0.000 0.000 0.000 No. kpts 10 Spacing 0.07
REM Total runtime: 4549.21 s
REM Overall efficiency: 90.6 %
REM
REM 4Ag2SE.cell (6404a18c6b5dc90313b5c56acf317f23)
REM
REM compiler GCC version 4.9.2
REM options -cpp -iprefix /lustre/shared/ucl/apps/gcc/4.9.2/bin/../lib/gcc/x86_64-unknown-linux-gnu/4.9.2/ -mtune=corei7 -march=x86-64 -g -Og
REM COMMAND_LINE
REM seed 2032470430 -1567759942 -898921350 -292718856 523422106 2127297722 700656045 -1920330074 688945066 -326585606 1782178056 2017665124
REM
REM Se 3|2.1|7|7|9|40:41:32(qc=5)
REM Ag 3|2.2|7|7|9|40U:50:41:42(qc=5)
REM 
CELL 1.54180    4.94561    6.73272    6.69631   98.12042   90.00000   90.00000
LATT -1
SFAC Se Ag 
Se     1  0.3955528061800  0.2771625814590  0.0876511945536 1.0
Se     1 -0.1044471938200 -0.2771625814590 -0.0876511945536 1.0
Se     1  0.4027239017715 -0.3101923133631  0.4987233849737 1.0
Se     1 -0.0972760982285  0.3101923133631 -0.4987233849737 1.0
Ag     2  0.2795366690423  0.0420895343720  0.3917226029922 1.0
Ag     2 -0.2204633309577 -0.0420895343720 -0.3917226029922 1.0
Ag     2  0.2808715754730 -0.0226736632451 -0.1863898740050 1.0
Ag     2 -0.2191284245270  0.0226736632451  0.1863898740050 1.0
Ag     2 -0.1090548389369  0.3062727036139 -0.0822324776792 1.0
Ag     2  0.3909451610631 -0.3062727036139  0.0822324776792 1.0
Ag     2  0.3986192864702  0.3746563268553 -0.2941026166447 1.0
Ag     2 -0.1013807135298 -0.3746563268553  0.2941026166447 1.0
END
