TITL 4Ag2Se_TETRA_OPT-200811-113207-919299 0.2503 230.729030 -4.61181924E+004 0 0 12 (P1) n - 1
REM
REM Run started: Tue, 11 Aug 2020 13:35:45 +0100 in /lustre/scratch/uccabz1/launch_tmp/launcher_2020-08-11-10-32-05-498429
REM CASTEP 20.1 from code version af48c487+ pr-geom-scf-spinfix Tue Jun 2 15:39:59 2020 +0100
REM Functional PBE for solids (2008) Relativity Koelling-Harmon Dispersion off
REM Cut-off 300.0000 eV Grid scale 1.7500 Gmax 15.5288 1/A FBSC none
REM MP grid 4 2 3 Offset 0.000 0.000 0.000 No. kpts 12 Spacing 0.07
REM Total runtime: 8197.98 s
REM Overall efficiency: 79.6667 %
REM
REM 4Ag2Se_TETRA_OPT.cell (db6eaae92e6a5f18c152ebab86a92a61)
REM
REM compiler GCC version 4.9.2
REM options -cpp -iprefix /lustre/shared/ucl/apps/gcc/4.9.2/bin/../lib/gcc/x86_64-unknown-linux-gnu/4.9.2/ -mtune=corei7 -march=x86-64 -g -Og
REM COMMAND_LINE
REM seed 1141265042 -455993067 -1965036208 1217557842 610280058 1648174562 1184130876 1323631267 416344868 -1863504181 1001669088 -655190930
REM
REM Se 3|2.1|7|7|9|40:41:32(qc=5)
REM Ag 3|2.2|7|7|9|40U:50:41:42(qc=5)
REM 
CELL 1.54180    4.43503    7.53698    7.13943   96.21886   81.12294   80.99792
LATT -1
SFAC Se Ag 
Se     1 -0.4161834393937 -0.3281760939723  0.4031357686152 1.0
Se     1 -0.1821489700675 -0.0178203504207  0.0092892191845 1.0
Se     1 -0.1316665109825  0.2022200050753  0.4046624235010 1.0
Se     1  0.3503263333804  0.4508028813066 -0.1574760164723 1.0
Ag     2  0.4046468531067  0.0148531039460  0.3926483391038 1.0
Ag     2 -0.1045283790507  0.2243122623364 -0.2329266992782 1.0
Ag     2 -0.2344900010362 -0.3564159983765 -0.1012356535219 1.0
Ag     2  0.3761294199254 -0.0479549090303 -0.1884599098105 1.0
Ag     2 -0.0438933842182 -0.1532103913092 -0.4136080894054 1.0
Ag     2  0.0487002783654  0.3546563323207  0.1243807695390 1.0
Ag     2  0.1779913501894 -0.2764842481483  0.1658868018204 1.0
Ag     2  0.1716394497814  0.4620807062722 -0.5014255532756 1.0
END
