TITL 4Ag2SE-200803-160656-b154de 0.0123 234.198189 -4.61175185E+004 0 0 12 (C2) n - 1
REM
REM Run started: Mon, 03 Aug 2020 17:44:45 +0100 in /lustre/scratch/uccabz1/launch_tmp/launcher_2020-08-03-15-06-54-535610
REM CASTEP 20.1 from code version af48c487+ pr-geom-scf-spinfix Tue Jun 2 15:39:59 2020 +0100
REM Functional PBE for solids (2008) Relativity Koelling-Harmon Dispersion off
REM Cut-off 300.0000 eV Grid scale 1.7500 Gmax 15.5288 1/A FBSC none
REM MP grid 4 4 2 Offset 0.000 0.000 0.000 No. kpts 16 Spacing 0.07
REM Total runtime: 5953.36 s
REM Overall efficiency: 91.2 %
REM
REM 4Ag2SE.cell (6404a18c6b5dc90313b5c56acf317f23)
REM
REM compiler GCC version 4.9.2
REM options -cpp -iprefix /lustre/shared/ucl/apps/gcc/4.9.2/bin/../lib/gcc/x86_64-unknown-linux-gnu/4.9.2/ -mtune=corei7 -march=x86-64 -g -Og
REM COMMAND_LINE
REM seed -1929465429 -1835942996 -1069658189 -765267921 -769616137 -633558677 483485299 1580898287 1220913642 2114645661 1890720165 426550534
REM
REM Se 3|2.1|7|7|9|40:41:32(qc=5)
REM Ag 3|2.2|7|7|9|40U:50:41:42(qc=5)
REM 
CELL 1.54180    5.71626    5.06254    9.83757   93.85243   90.00000  124.37211
LATT -1
SFAC Se Ag 
Se     1  0.3168121184152 -0.5086496011275  0.3706958305147 1.0
Se     1 -0.1745382804573  0.5086496011275 -0.3706958305147 1.0
Se     1  0.2179715127482  0.3208553413565 -0.1066705108047 1.0
Se     1 -0.1028838286083 -0.3208553413565  0.1066705108047 1.0
Ag     2  0.4149926712097 -0.1250185841071 -0.3801101289205 1.0
Ag     2  0.5400112553169  0.1250185841071  0.3801101289205 1.0
Ag     2  0.1282594184085  0.2114563909268 -0.3846965616483 1.0
Ag     2 -0.0831969725183 -0.2114563909268  0.3846965616483 1.0
Ag     2 -0.1081416970521  0.1844368910904  0.1695308243929 1.0
Ag     2 -0.2925785881425 -0.1844368910905 -0.1695308243929 1.0
Ag     2  0.2108842265957 -0.1897772374887 -0.1250845031510 1.0
Ag     2  0.4006614640844  0.1897772374887  0.1250845031510 1.0
END
