TITL 4Ag2Se_TETRA_OPT-200811-100427-23f018 0.0191 225.152107 -4.61185889E+004 0 0 12 (P1) n - 1
REM
REM Run started: Tue, 11 Aug 2020 12:35:07 +0100 in /lustre/scratch/uccabz1/launch_tmp/launcher_2020-08-11-09-04-26-254106
REM CASTEP 20.1 from code version af48c487+ pr-geom-scf-spinfix Tue Jun 2 15:39:59 2020 +0100
REM Functional PBE for solids (2008) Relativity Koelling-Harmon Dispersion off
REM Cut-off 300.0000 eV Grid scale 1.7500 Gmax 15.5288 1/A FBSC none
REM MP grid 3 3 3 Offset 0.000 0.000 0.000 No. kpts 14 Spacing 0.07
REM Total runtime: 9946.59 s
REM Overall efficiency: 95.1667 %
REM
REM 4Ag2Se_TETRA_OPT.cell (db6eaae92e6a5f18c152ebab86a92a61)
REM
REM compiler GCC version 4.9.2
REM options -cpp -iprefix /lustre/shared/ucl/apps/gcc/4.9.2/bin/../lib/gcc/x86_64-unknown-linux-gnu/4.9.2/ -mtune=corei7 -march=x86-64 -g -Og
REM COMMAND_LINE
REM seed -1458905798 -2010740735 -236908005 -851761130 -1114408378 1901888622 406197713 883290848 -337965285 -2129789865 1870137864 -346808191
REM
REM Se 3|2.1|7|7|9|40:41:32(qc=5)
REM Ag 3|2.2|7|7|9|40U:50:41:42(qc=5)
REM 
CELL 1.54180    4.98149    6.61041    6.84318   89.59701   90.17412   87.67845
LATT -1
SFAC Se Ag 
Se     1 -0.1796265900969  0.0774097246528 -0.3558961141872 1.0
Se     1  0.4636963547324  0.1902837531150  0.1868713490850 1.0
Se     1  0.2978510076652 -0.3222772625139 -0.3778795144066 1.0
Se     1 -0.2958434720234 -0.2964401454695  0.2404287502947 1.0
Ag     2 -0.5624498150159 -0.0581369759660 -0.1064765527375 1.0
Ag     2 -0.1990320154340  0.4781291395349 -0.4135945259175 1.0
Ag     2  0.1389187957506 -0.5041207453833  0.2580411657093 1.0
Ag     2  0.0198898737506  0.2574032273396 -0.0585798759277 1.0
Ag     2  0.3213103897257  0.2398127686826 -0.4197486600322 1.0
Ag     2  0.0552571678110 -0.0231473124521  0.2787022090113 1.0
Ag     2 -0.0394202333508 -0.2684647998379 -0.0878474422437 1.0
Ag     2 -0.5025626635145 -0.5085551717020 -0.0689001886477 1.0
END
