TITL 4Ag2Se_TETRA-200803-162357-876b61 -0.0786 245.716594 -4.61170609E+004 0 0 12 (P2) n - 1
REM
REM Run started: Mon, 03 Aug 2020 16:48:50 +0100 in /lustre/scratch/uccabz1/launch_tmp/launcher_2020-08-03-15-23-55-414132
REM CASTEP 20.1 from code version af48c487+ pr-geom-scf-spinfix Tue Jun 2 15:39:59 2020 +0100
REM Functional PBE for solids (2008) Relativity Koelling-Harmon Dispersion off
REM Cut-off 300.0000 eV Grid scale 1.7500 Gmax 15.5288 1/A FBSC none
REM MP grid 3 3 2 Offset 0.000 0.000 0.000 No. kpts 6 Spacing 0.07
REM Total runtime: 1642.56 s
REM Overall efficiency: 70.8333 %
REM
REM 4Ag2Se_TETRA.cell (4020362940262d3df87d4014b41eb05e)
REM
REM compiler GCC version 4.9.2
REM options -cpp -iprefix /lustre/shared/ucl/apps/gcc/4.9.2/bin/../lib/gcc/x86_64-unknown-linux-gnu/4.9.2/ -mtune=corei7 -march=x86-64 -g -Og
REM COMMAND_LINE
REM seed -1096958355 -2083371947 444853244 645346457 700758804 1319372389 642100340 865735983 -792467404 -775079140 49615258 -1075260424
REM
REM Se 3|2.1|7|7|9|40:41:32(qc=5)
REM Ag 3|2.2|7|7|9|40U:50:41:42(qc=5)
REM 
CELL 1.54180    5.42701    5.51186    8.21447   90.00000   90.24994   90.00000
LATT -1
SFAC Se Ag 
Se     1  0.0404714175548 -0.3327321185219 -0.2451422196416 1.0
Se     1 -0.0404714175548 -0.3327321185219  0.2451422196416 1.0
Se     1  0.4624231162739  0.1627101198498  0.2540488338273 1.0
Se     1 -0.4624231162739  0.1627101198498 -0.2540488338273 1.0
Ag     2  0.4699642572270 -0.3348413090866  0.2202690120377 1.0
Ag     2 -0.4699642572270 -0.3348413090866 -0.2202690120377 1.0
Ag     2  0.2543246564025 -0.1276262119840  0.4896410511944 1.0
Ag     2 -0.2543246564025 -0.1276262119840 -0.4896410511944 1.0
Ag     2  0.0269254646881  0.1798927891967 -0.2892468359646 1.0
Ag     2 -0.0269254646881  0.1798927891967  0.2892468359646 1.0
Ag     2  0.2452837545947  0.3695141305461 -0.0120015268349 1.0
Ag     2 -0.2452837545947  0.3695141305461  0.0120015268349 1.0
END
