TITL 4Ag2SE-200803-160654-69e130 0.0380 227.532316 -4.61186890E+004 0 0 12 (P21/m) n - 1
REM
REM Run started: Mon, 03 Aug 2020 17:53:01 +0100 in /lustre/scratch/uccabz1/launch_tmp/launcher_2020-08-03-15-06-53-102318
REM CASTEP 20.1 from code version af48c487+ pr-geom-scf-spinfix Tue Jun 2 15:39:59 2020 +0100
REM Functional PBE for solids (2008) Relativity Koelling-Harmon Dispersion off
REM Cut-off 300.0000 eV Grid scale 1.7500 Gmax 15.5288 1/A FBSC none
REM MP grid 4 3 2 Offset 0.000 0.000 0.000 No. kpts 8 Spacing 0.07
REM Total runtime: 6616.57 s
REM Overall efficiency: 93.0769 %
REM
REM 4Ag2SE.cell (6404a18c6b5dc90313b5c56acf317f23)
REM
REM compiler GCC version 4.9.2
REM options -cpp -iprefix /lustre/shared/ucl/apps/gcc/4.9.2/bin/../lib/gcc/x86_64-unknown-linux-gnu/4.9.2/ -mtune=corei7 -march=x86-64 -g -Og
REM COMMAND_LINE
REM seed 1423221962 -1842159038 1710379720 844480987 575973883 1284266433 -1760662476 1813002998 1028178660 -376373438 -548979067 -1065416304
REM
REM Se 3|2.1|7|7|9|40:41:32(qc=5)
REM Ag 3|2.2|7|7|9|40U:50:41:42(qc=5)
REM 
CELL 1.54180    4.18917    6.58678    8.68349   90.00000  108.26517   90.00000
LATT -1
SFAC Se Ag 
Se     1 -0.0439181747341  0.2614257060557  0.1575711569790 1.0
Se     1  0.0439181747341 -0.2385742939443 -0.1575711569790 1.0
Se     1 -0.3440012474368  0.2614469833223 -0.4653123789540 1.0
Se     1  0.3440012474368 -0.2385530166777  0.4653123789540 1.0
Ag     2 -0.4988937618242  0.5116651022636  0.0003418537114 1.0
Ag     2  0.4988937618242  0.0116651022636 -0.0003418537114 1.0
Ag     2 -0.7636718732656  0.0468090307915 -0.3372377784081 1.0
Ag     2  0.7636718732656 -0.4531909692085  0.3372377784081 1.0
Ag     2 -0.1161069916814  0.2621741354140 -0.1524373815063 1.0
Ag     2  0.1161069916814 -0.2378258645860  0.1524373815063 1.0
Ag     2 -0.7633719573238 -0.5236737578471 -0.3371659517786 1.0
Ag     2  0.7633719573238 -0.0236737578471  0.3371659517786 1.0
END
