TITL 4Ag2Se_TETRA-200803-163157-571680 0.0587 233.841854 -4.61168679E+004 0 0 12 (Ama2) n - 1
REM
REM Run started: Mon, 03 Aug 2020 16:58:51 +0100 in /lustre/scratch/uccabz1/launch_tmp/launcher_2020-08-03-15-31-55-241493
REM CASTEP 20.1 from code version af48c487+ pr-geom-scf-spinfix Tue Jun 2 15:39:59 2020 +0100
REM Functional PBE for solids (2008) Relativity Koelling-Harmon Dispersion off
REM Cut-off 300.0000 eV Grid scale 1.7500 Gmax 15.5288 1/A FBSC none
REM MP grid 3 3 4 Offset 0.000 0.000 0.000 No. kpts 8 Spacing 0.07
REM Total runtime: 1946.58 s
REM Overall efficiency: 75.8333 %
REM
REM 4Ag2Se_TETRA.cell (4020362940262d3df87d4014b41eb05e)
REM
REM compiler GCC version 4.9.2
REM options -cpp -iprefix /lustre/shared/ucl/apps/gcc/4.9.2/bin/../lib/gcc/x86_64-unknown-linux-gnu/4.9.2/ -mtune=corei7 -march=x86-64 -g -Og
REM COMMAND_LINE
REM seed 1547490557 -288530474 -772915492 1938203181 1657696645 232082409 1107245434 -13114264 -327972885 2043473407 461552406 1969973951
REM
REM Se 3|2.1|7|7|9|40:41:32(qc=5)
REM Ag 3|2.2|7|7|9|40U:50:41:42(qc=5)
REM 
CELL 1.54180    7.86844    7.86844    4.16837   90.00000   90.00000  115.02728
LATT -1
SFAC Se Ag 
Se     1  0.1198713284476  0.4764578647625  0.2500000000000 1.0
Se     1 -0.4764578647625 -0.1198713284476 -0.2500000000000 1.0
Se     1 -0.2407670146421 -0.4057423060241 -0.2500000000000 1.0
Se     1  0.4057423060241  0.2407670146421  0.2500000000000 1.0
Ag     2 -0.2891981094913  0.0848319767872  0.2500000000000 1.0
Ag     2 -0.0848319767872  0.2891981094913 -0.2500000000000 1.0
Ag     2  0.1610101474922  0.0678086243142 -0.2500000000000 1.0
Ag     2 -0.0678086243142 -0.1610101474922  0.2500000000000 1.0
Ag     2  0.1092834944786 -0.3115582498985 -0.2500000000000 1.0
Ag     2  0.3115582498985 -0.1092834944786  0.2500000000000 1.0
Ag     2 -0.4462986236993 -0.3321865873557  0.2500000000000 1.0
Ag     2  0.3321865873557  0.4462986236993 -0.2500000000000 1.0
END
