TITL 4Ag2Se_TETRA-200803-162333-90d0fc -0.0054 241.853580 -4.61158103E+004 0 0 12 (C2) n - 1
REM
REM Run started: Mon, 03 Aug 2020 17:05:05 +0100 in /lustre/scratch/uccabz1/launch_tmp/launcher_2020-08-03-15-23-32-204870
REM CASTEP 20.1 from code version af48c487+ pr-geom-scf-spinfix Tue Jun 2 15:39:59 2020 +0100
REM Functional PBE for solids (2008) Relativity Koelling-Harmon Dispersion off
REM Cut-off 300.0000 eV Grid scale 1.7500 Gmax 15.5288 1/A FBSC none
REM MP grid 3 3 3 Offset 0.000 0.000 0.000 No. kpts 10 Spacing 0.07
REM Total runtime: 2739.11 s
REM Overall efficiency: 91.0833 %
REM
REM 4Ag2Se_TETRA.cell (4020362940262d3df87d4014b41eb05e)
REM
REM compiler GCC version 4.9.2
REM options -cpp -iprefix /lustre/shared/ucl/apps/gcc/4.9.2/bin/../lib/gcc/x86_64-unknown-linux-gnu/4.9.2/ -mtune=corei7 -march=x86-64 -g -Og
REM COMMAND_LINE
REM seed -1975920723 -990850978 -754438854 -1566334303 -637635619 910186001 1964845487 535223261 -1106398088 1513840656 -395491850 -1627207703
REM
REM Se 3|2.1|7|7|9|40:41:32(qc=5)
REM Ag 3|2.2|7|7|9|40U:50:41:42(qc=5)
REM 
CELL 1.54180    5.97433    6.80729    5.97433   92.15895   94.48230   92.15895
LATT -1
SFAC Se Ag 
Se     1  0.1868409958316  0.0160110945572  0.3205221074093 1.0
Se     1 -0.3205221074093 -0.0160110945572 -0.1868409958316 1.0
Se     1 -0.0472201964339 -0.4870704666784 -0.4367284353423 1.0
Se     1  0.4367284353423  0.4870704666784  0.0472201964339 1.0
Ag     2 -0.2073688232791 -0.1434542399371  0.4192889577840 1.0
Ag     2 -0.4192889577840  0.1434542399371  0.2073688232791 1.0
Ag     2  0.0467572917717 -0.3498610418362  0.1585548747831 1.0
Ag     2 -0.1585548747831  0.3498610418362 -0.0467572917717 1.0
Ag     2  0.1551011322640  0.1819583641376 -0.2638533947548 1.0
Ag     2  0.2638533947548 -0.1819583641376 -0.1551011322640 1.0
Ag     2 -0.4607136537529  0.3267176305699 -0.3989781634780 1.0
Ag     2  0.3989781634780 -0.3267176305699  0.4607136537529 1.0
END
