TITL 4Ag2Se_TETRA_OPT-200811-112436-b98eb4 -0.0380 229.358330 -4.61183337E+004 0 0 12 (P1) n - 1
REM
REM Run started: Tue, 11 Aug 2020 14:07:11 +0100 in /lustre/scratch/uccabz1/launch_tmp/launcher_2020-08-11-10-24-34-805032
REM CASTEP 20.1 from code version af48c487+ pr-geom-scf-spinfix Tue Jun 2 15:39:59 2020 +0100
REM Functional PBE for solids (2008) Relativity Koelling-Harmon Dispersion off
REM Cut-off 300.0000 eV Grid scale 1.7500 Gmax 15.5288 1/A FBSC none
REM MP grid 3 3 3 Offset 0.000 0.000 0.000 No. kpts 14 Spacing 0.07
REM Total runtime: 10850.4 s
REM Overall efficiency: 95.5 %
REM
REM 4Ag2Se_TETRA_OPT.cell (db6eaae92e6a5f18c152ebab86a92a61)
REM
REM compiler GCC version 4.9.2
REM options -cpp -iprefix /lustre/shared/ucl/apps/gcc/4.9.2/bin/../lib/gcc/x86_64-unknown-linux-gnu/4.9.2/ -mtune=corei7 -march=x86-64 -g -Og
REM COMMAND_LINE
REM seed -1223462044 715978530 871956398 1577979182 -395036281 1025216855 1676065580 -2074605790 -1007183689 -1588959697 1217627102 255952767
REM
REM Se 3|2.1|7|7|9|40:41:32(qc=5)
REM Ag 3|2.2|7|7|9|40U:50:41:42(qc=5)
REM 
CELL 1.54180    5.13232    6.64679    6.74213   93.70663   88.24154   88.92035
LATT -1
SFAC Se Ag 
Se     1 -0.0187960394792 -0.3525138962671 -0.2109512805945 1.0
Se     1 -0.3734526307636  0.1421152855660 -0.2476539537616 1.0
Se     1 -0.3633539797764 -0.3176638956961  0.2707639699204 1.0
Se     1  0.2663319378769  0.1397457847225  0.2417595027421 1.0
Ag     2  0.3617562381781 -0.1288235054132 -0.0725060269719 1.0
Ag     2 -0.2042905222928  0.0493042364229  0.3864992378425 1.0
Ag     2  0.2994543729321  0.4873386717571  0.0426776996494 1.0
Ag     2 -0.4887202956836  0.5096252612235 -0.3766046835926 1.0
Ag     2 -0.1987509764232  0.3144958514161  0.0775151482503 1.0
Ag     2  0.1247852058998  0.2161745281814 -0.2695509078331 1.0
Ag     2  0.2458067526635 -0.1512251873436 -0.4910774323968 1.0
Ag     2  0.0237355368686 -0.5329487345695  0.4211522267457 1.0
END
