TITL 4Ag2Se_TETRA_OPT-200811-095646-063496 0.0474 225.226442 -4.61185008E+004 0 0 12 (P1) n - 1
REM
REM Run started: Tue, 11 Aug 2020 11:01:42 +0100 in /lustre/scratch/uccabz1/launch_tmp/launcher_2020-08-11-08-56-44-879786
REM CASTEP 20.1 from code version af48c487+ pr-geom-scf-spinfix Tue Jun 2 15:39:59 2020 +0100
REM Functional PBE for solids (2008) Relativity Koelling-Harmon Dispersion off
REM Cut-off 300.0000 eV Grid scale 1.7500 Gmax 15.5288 1/A FBSC none
REM MP grid 3 3 3 Offset 0.000 0.000 0.000 No. kpts 14 Spacing 0.07
REM Total runtime: 4028.28 s
REM Overall efficiency: 94.1429 %
REM
REM 4Ag2Se_TETRA_OPT.cell (db6eaae92e6a5f18c152ebab86a92a61)
REM
REM compiler GCC version 4.9.2
REM options -cpp -iprefix /lustre/shared/ucl/apps/gcc/4.9.2/bin/../lib/gcc/x86_64-unknown-linux-gnu/4.9.2/ -mtune=corei7 -march=x86-64 -g -Og
REM COMMAND_LINE
REM seed -1128516454 1264215703 2102474849 1440315356 -1996958983 1580470988 599676339 1008326846 2094889816 674861991 -782354548 2948843
REM
REM Se 3|2.1|7|7|9|40:41:32(qc=5)
REM Ag 3|2.2|7|7|9|40U:50:41:42(qc=5)
REM 
CELL 1.54180    4.93159    6.79676    6.72474   90.51700   92.16387   90.48305
LATT -1
SFAC Se Ag 
Se     1  0.2491151773223  0.3752806592168  0.3606985731092 1.0
Se     1 -0.1363770533839 -0.0982951996071  0.2838116380657 1.0
Se     1 -0.2979796408519  0.4016537876663 -0.1462582318470 1.0
Se     1  0.3125186034502 -0.1329734173786 -0.2069702015941 1.0
Ag     2 -0.1781973300858  0.0049702181453 -0.1036720116470 1.0
Ag     2 -0.3050485562383  0.1753283077727 -0.4841606804165 1.0
Ag     2  0.2247392356721 -0.4233294322081  0.0258767822457 1.0
Ag     2  0.1983092443085  0.2658798479869 -0.2608203344666 1.0
Ag     2 -0.2591841506891 -0.4931366377888  0.2420367764291 1.0
Ag     2  0.3463742989666  0.0912124227279  0.1193702785203 1.0
Ag     2  0.3674918136172 -0.2199483573630  0.4036267377440 1.0
Ag     2 -0.1374091420879 -0.3221081991703 -0.3792559261426 1.0
END
