TITL 4Ag2Se_TETRA_OPT-200811-091746-2886ec -0.1959 223.344221 -4.61185367E+004 0 0 12 (P1) n - 1
REM
REM Run started: Tue, 11 Aug 2020 11:19:55 +0100 in /lustre/scratch/uccabz1/launch_tmp/launcher_2020-08-11-08-17-44-694397
REM CASTEP 20.1 from code version af48c487+ pr-geom-scf-spinfix Tue Jun 2 15:39:59 2020 +0100
REM Functional PBE for solids (2008) Relativity Koelling-Harmon Dispersion off
REM Cut-off 300.0000 eV Grid scale 1.7500 Gmax 15.5288 1/A FBSC none
REM MP grid 4 3 2 Offset 0.000 0.000 0.000 No. kpts 12 Spacing 0.07
REM Total runtime: 8088.15 s
REM Overall efficiency: 82.5833 %
REM
REM 4Ag2Se_TETRA_OPT.cell (db6eaae92e6a5f18c152ebab86a92a61)
REM
REM compiler GCC version 4.9.2
REM options -cpp -iprefix /lustre/shared/ucl/apps/gcc/4.9.2/bin/../lib/gcc/x86_64-unknown-linux-gnu/4.9.2/ -mtune=corei7 -march=x86-64 -g -Og
REM COMMAND_LINE
REM seed -1594325081 588777631 -130311308 1530818472 -1333798486 -687444410 1611096957 -447155957 -1757521309 -2094993239 330757298 813906991
REM
REM Se 3|2.1|7|7|9|40:41:32(qc=5)
REM Ag 3|2.2|7|7|9|40U:50:41:42(qc=5)
REM 
CELL 1.54180    4.32513    6.82095    7.79507   86.81574  102.24800   85.29216
LATT -1
SFAC Se Ag 
Se     1  0.3869702725871  0.1594019824067  0.0188236789469 1.0
Se     1  0.0300734075684  0.1492656751742 -0.4386076357988 1.0
Se     1  0.1551429130621 -0.3287007151587  0.3394306117413 1.0
Se     1 -0.4614443539237 -0.3218561491346 -0.2033966566817 1.0
Ag     2 -0.4179540580123 -0.0920183595991 -0.5167918948235 1.0
Ag     2 -0.0278424889312  0.0860264178239  0.2209858512697 1.0
Ag     2 -0.0077197739110 -0.0916986539298 -0.1246514457041 1.0
Ag     2 -0.4833767340150  0.3401742422739  0.3494856971571 1.0
Ag     2 -0.4003300003210  0.2789213250222 -0.2556846050994 1.0
Ag     2 -0.4345705592190 -0.2468198753284  0.1352974569437 1.0
Ag     2 -0.0227699345571  0.5438703204155 -0.3739583209071 1.0
Ag     2  0.0233193096727  0.4835612900341  0.0319568629559 1.0
END
