TITL 4Ag2SE-200803-155113-f072be -0.0433 224.027628 -4.61185050E+004 0 0 12 (P21) n - 1
REM
REM Run started: Mon, 03 Aug 2020 17:08:58 +0100 in /lustre/scratch/uccabz1/launch_tmp/launcher_2020-08-03-14-51-11-883236
REM CASTEP 20.1 from code version af48c487+ pr-geom-scf-spinfix Tue Jun 2 15:39:59 2020 +0100
REM Functional PBE for solids (2008) Relativity Koelling-Harmon Dispersion off
REM Cut-off 300.0000 eV Grid scale 1.7500 Gmax 15.5288 1/A FBSC none
REM MP grid 3 3 3 Offset 0.000 0.000 0.000 No. kpts 10 Spacing 0.07
REM Total runtime: 4778.72 s
REM Overall efficiency: 93 %
REM
REM 4Ag2SE.cell (6404a18c6b5dc90313b5c56acf317f23)
REM
REM compiler GCC version 4.9.2
REM options -cpp -iprefix /lustre/shared/ucl/apps/gcc/4.9.2/bin/../lib/gcc/x86_64-unknown-linux-gnu/4.9.2/ -mtune=corei7 -march=x86-64 -g -Og
REM COMMAND_LINE
REM seed 901918153 934058536 -1400286569 583417284 945897277 -1490847865 1535798500 203408787 -2020205117 1211371303 -1282871916 489483914
REM
REM Se 3|2.1|7|7|9|40:41:32(qc=5)
REM Ag 3|2.2|7|7|9|40U:50:41:42(qc=5)
REM 
CELL 1.54180    5.08519    6.77241    6.65711   90.00000  102.26933   90.00000
LATT -1
SFAC Se Ag 
Se     1 -0.1607182187831 -0.1782430152332 -0.4963786165357 1.0
Se     1  0.1607182187831  0.3217569847668  0.4963786165357 1.0
Se     1  0.2195563509581 -0.1843454167637  0.0820661341686 1.0
Se     1 -0.2195563509581  0.3156545832363 -0.0820661341686 1.0
Ag     2  0.2354833525916  0.1174176701764 -0.1593623968827 1.0
Ag     2 -0.2354833525916 -0.3825823298236  0.1593623968827 1.0
Ag     2  0.3256055549840 -0.3839073833148 -0.2375372582551 1.0
Ag     2 -0.3256055549840  0.1160926166852  0.2375372582551 1.0
Ag     2 -0.2748009998860 -0.0850598226741 -0.1347605249263 1.0
Ag     2  0.2748009998860 -0.5850598226741  0.1347605249263 1.0
Ag     2  0.3390391946680 -0.0543087321906  0.4815342636551 1.0
Ag     2 -0.3390391946680  0.4456912678094 -0.4815342636551 1.0
END
