TITL 4Ag2Se_TETRA_OPT-200811-095019-3a4d06 -0.0449 238.126012 -4.61181587E+004 0 0 12 (P1) n - 1
REM
REM Run started: Tue, 11 Aug 2020 12:51:00 +0100 in /lustre/scratch/uccabz1/launch_tmp/launcher_2020-08-11-08-50-17-798832
REM CASTEP 20.1 from code version af48c487+ pr-geom-scf-spinfix Tue Jun 2 15:39:59 2020 +0100
REM Functional PBE for solids (2008) Relativity Koelling-Harmon Dispersion off
REM Cut-off 300.0000 eV Grid scale 1.7500 Gmax 15.5288 1/A FBSC none
REM MP grid 3 3 3 Offset 0.000 0.000 0.000 No. kpts 14 Spacing 0.07
REM Total runtime: 10876.6 s
REM Overall efficiency: 93.5385 %
REM
REM 4Ag2Se_TETRA_OPT.cell (db6eaae92e6a5f18c152ebab86a92a61)
REM
REM compiler GCC version 4.9.2
REM options -cpp -iprefix /lustre/shared/ucl/apps/gcc/4.9.2/bin/../lib/gcc/x86_64-unknown-linux-gnu/4.9.2/ -mtune=corei7 -march=x86-64 -g -Og
REM COMMAND_LINE
REM seed -923067647 -1834097288 -1575621540 -1429743625 -2132637882 347675669 1595983267 -795269653 971491338 -1945904361 -1942333970 -871507218
REM
REM Se 3|2.1|7|7|9|40:41:32(qc=5)
REM Ag 3|2.2|7|7|9|40U:50:41:42(qc=5)
REM 
CELL 1.54180    4.83666    6.97561    7.13762   97.35596   89.06461   85.85036
LATT -1
SFAC Se Ag 
Se     1 -0.3112428486896 -0.3196765025550 -0.4480935175876 1.0
Se     1  0.1028627785339  0.2932386344491 -0.2591238356273 1.0
Se     1 -0.4039858970148  0.2100897844650  0.1755835663756 1.0
Se     1  0.1887692932933 -0.3016971936857 -0.0432273259873 1.0
Ag     2 -0.1575236579663 -0.4876459764692  0.1226612774596 1.0
Ag     2 -0.1502243824237 -0.0685787468241  0.3436632356762 1.0
Ag     2  0.1277676815330  0.0766043376426  0.0128524840526 1.0
Ag     2  0.3053841127165 -0.0448108540848  0.6208027817429 1.0
Ag     2  0.1258556870788  0.2889004974970  0.3760988194185 1.0
Ag     2 -0.3829838555316  0.2893646612863 -0.4183453639246 1.0
Ag     2  0.3355955243224 -0.3205731923629  0.2906526881499 1.0
Ag     2 -0.3301223358520 -0.1449296493582 -0.0709873097485 1.0
END
