TITL 4Ag2Se_TETRA-200803-164011-377706 -0.0248 241.033828 -4.61174203E+004 0 0 12 (P-1) n - 1
REM
REM Run started: Mon, 03 Aug 2020 17:26:50 +0100 in /lustre/scratch/uccabz1/launch_tmp/launcher_2020-08-03-15-40-10-239938
REM CASTEP 20.1 from code version af48c487+ pr-geom-scf-spinfix Tue Jun 2 15:39:59 2020 +0100
REM Functional PBE for solids (2008) Relativity Koelling-Harmon Dispersion off
REM Cut-off 300.0000 eV Grid scale 1.7500 Gmax 15.5288 1/A FBSC none
REM MP grid 2 2 4 Offset 0.000 0.000 0.000 No. kpts 8 Spacing 0.07
REM Total runtime: 3086.99 s
REM Overall efficiency: 90.5833 %
REM
REM 4Ag2Se_TETRA.cell (4020362940262d3df87d4014b41eb05e)
REM
REM compiler GCC version 4.9.2
REM options -cpp -iprefix /lustre/shared/ucl/apps/gcc/4.9.2/bin/../lib/gcc/x86_64-unknown-linux-gnu/4.9.2/ -mtune=corei7 -march=x86-64 -g -Og
REM COMMAND_LINE
REM seed 898441927 1653997977 -846615880 -303881874 -496265677 -1665637774 1799854212 -186044399 330513458 -1927738340 -1213759904 385350603
REM
REM Se 3|2.1|7|7|9|40:41:32(qc=5)
REM Ag 3|2.2|7|7|9|40U:50:41:42(qc=5)
REM 
CELL 1.54180    7.66183    7.77175    4.05486   90.37096   93.30895   89.50309
LATT -1
SFAC Se Ag 
Se     1 -0.2223603989781  0.1076051357055  0.1292458011755 1.0
Se     1  0.2223603989781 -0.1076051357055 -0.1292458011755 1.0
Se     1 -0.3313149390447 -0.3501739050067 -0.2359362680621 1.0
Se     1  0.3313149390447  0.3501739050067  0.2359362680621 1.0
Ag     2 -0.4364253446451  0.3028974593220 -0.2469259805655 1.0
Ag     2  0.4364253446451 -0.3028974593220  0.2469259805655 1.0
Ag     2 -0.0020437260808 -0.3193528162997  0.1326929806351 1.0
Ag     2  0.0020437260808  0.3193528162997 -0.1326929806351 1.0
Ag     2 -0.2316380651906  0.4380394563992  0.3026348288403 1.0
Ag     2  0.2316380651906 -0.4380394563992 -0.3026348288403 1.0
Ag     2 -0.1191021070191 -0.1073238576448 -0.3791172754957 1.0
Ag     2  0.1191021070191  0.1073238576448  0.3791172754957 1.0
END
