TITL 4Ag2Se_TETRA_OPT-200811-093935-a98ef0 0.0461 220.107277 -4.61185459E+004 0 0 12 (P1) n - 1
REM
REM Run started: Tue, 11 Aug 2020 11:58:33 +0100 in /lustre/scratch/uccabz1/launch_tmp/launcher_2020-08-11-08-39-33-258120
REM CASTEP 20.1 from code version af48c487+ pr-geom-scf-spinfix Tue Jun 2 15:39:59 2020 +0100
REM Functional PBE for solids (2008) Relativity Koelling-Harmon Dispersion off
REM Cut-off 300.0000 eV Grid scale 1.7500 Gmax 15.5288 1/A FBSC none
REM MP grid 3 3 3 Offset 0.000 0.000 0.000 No. kpts 14 Spacing 0.07
REM Total runtime: 8536.18 s
REM Overall efficiency: 94.6364 %
REM
REM 4Ag2Se_TETRA_OPT.cell (db6eaae92e6a5f18c152ebab86a92a61)
REM
REM compiler GCC version 4.9.2
REM options -cpp -iprefix /lustre/shared/ucl/apps/gcc/4.9.2/bin/../lib/gcc/x86_64-unknown-linux-gnu/4.9.2/ -mtune=corei7 -march=x86-64 -g -Og
REM COMMAND_LINE
REM seed -505044962 552866332 -791577196 -1234931590 -346066876 814637727 -980751403 273011729 1586599369 -1345830563 -345358491 799636024
REM
REM Se 3|2.1|7|7|9|40:41:32(qc=5)
REM Ag 3|2.2|7|7|9|40U:50:41:42(qc=5)
REM 
CELL 1.54180    4.84526    6.70294    6.84048   97.71338   88.85667   90.11470
LATT -1
SFAC Se Ag 
Se     1 -0.0048851963783 -0.0737531979491 -0.3152145653814 1.0
Se     1 -0.4422649802925 -0.1008600407080  0.2609283766899 1.0
Se     1 -0.3945208435179  0.4711788708908 -0.1434408277345 1.0
Se     1  0.1013167818556  0.4947976672670  0.2741056318442 1.0
Ag     2 -0.4565766035646  0.1780993290702 -0.4210260196659 1.0
Ag     2  0.0274624079654 -0.2177578916387  0.0439780799186 1.0
Ag     2  0.5040107490623 -0.1153971292874 -0.1478743301185 1.0
Ag     2  0.0635724319097  0.1108077606054  0.3555659306242 1.0
Ag     2 -0.3858241644599  0.2766577570969  0.1784818805456 1.0
Ag     2 -0.3971585442518 -0.3957114243716  0.4875807842223 1.0
Ag     2  0.1066454223069  0.4975529220114 -0.3236098635771 1.0
Ag     2  0.1335996393650  0.2142891770130 -0.0446239773674 1.0
END
