TITL 4Ag2Se_TETRA-200803-164408-c59bd9 -0.0372 256.848966 -4.61171075E+004 0 0 12 (P21) n - 1
REM
REM Run started: Mon, 03 Aug 2020 17:12:26 +0100 in /lustre/scratch/uccabz1/launch_tmp/launcher_2020-08-03-15-44-07-067284
REM CASTEP 20.1 from code version af48c487+ pr-geom-scf-spinfix Tue Jun 2 15:39:59 2020 +0100
REM Functional PBE for solids (2008) Relativity Koelling-Harmon Dispersion off
REM Cut-off 300.0000 eV Grid scale 1.7500 Gmax 15.5288 1/A FBSC none
REM MP grid 2 2 4 Offset 0.000 0.000 0.000 No. kpts 4 Spacing 0.07
REM Total runtime: 1853.1 s
REM Overall efficiency: 74.3333 %
REM
REM 4Ag2Se_TETRA.cell (4020362940262d3df87d4014b41eb05e)
REM
REM compiler GCC version 4.9.2
REM options -cpp -iprefix /lustre/shared/ucl/apps/gcc/4.9.2/bin/../lib/gcc/x86_64-unknown-linux-gnu/4.9.2/ -mtune=corei7 -march=x86-64 -g -Og
REM COMMAND_LINE
REM seed -754554510 -1543283240 848848222 -1888452013 -664479242 1766711670 -808867883 1312854357 1799185359 194438375 -2008093515 369384870
REM
REM Se 3|2.1|7|7|9|40:41:32(qc=5)
REM Ag 3|2.2|7|7|9|40U:50:41:42(qc=5)
REM 
CELL 1.54180    7.92869    7.92064    4.09421   92.62024   90.00000   90.00000
LATT -1
SFAC Se Ag 
Se     1 -0.3609862508906 -0.0460859284124 -0.2221806382283 1.0
Se     1  0.1390137491094  0.0460859284124  0.2221806382283 1.0
Se     1  0.3328672717044 -0.4230327558295 -0.2563556361001 1.0
Se     1 -0.1671327282956  0.4230327558295  0.2563556361001 1.0
Ag     2  0.4614525721603  0.1003903004764  0.2414260071661 1.0
Ag     2 -0.0385474278397 -0.1003903004764 -0.2414260071661 1.0
Ag     2 -0.4925891344090  0.4564953752988  0.2224191190918 1.0
Ag     2  0.0074108655910 -0.4564953752988 -0.2224191190918 1.0
Ag     2 -0.3208199423290 -0.3636340317621 -0.2792146640456 1.0
Ag     2  0.1791800576710  0.3636340317621  0.2792146640456 1.0
Ag     2  0.1657067837641 -0.2661024477843  0.2788683670423 1.0
Ag     2 -0.3342932162359  0.2661024477843 -0.2788683670423 1.0
END
