TITL 4Ag2SE-200803-160655-288789 -0.0418 227.351133 -4.61170461E+004 0 0 12 (R3) n - 1
REM
REM Run started: Mon, 03 Aug 2020 16:44:41 +0100 in /lustre/scratch/uccabz1/launch_tmp/launcher_2020-08-03-15-06-53-344643
REM CASTEP 20.1 from code version af48c487+ pr-geom-scf-spinfix Tue Jun 2 15:39:59 2020 +0100
REM Functional PBE for solids (2008) Relativity Koelling-Harmon Dispersion off
REM Cut-off 300.0000 eV Grid scale 1.7500 Gmax 15.5288 1/A FBSC none
REM MP grid 3 3 3 Offset 0.000 0.000 0.000 No. kpts 6 Spacing 0.07
REM Total runtime: 2310.24 s
REM Overall efficiency: 70.1111 %
REM
REM 4Ag2SE.cell (6404a18c6b5dc90313b5c56acf317f23)
REM
REM compiler GCC version 4.9.2
REM options -cpp -iprefix /lustre/shared/ucl/apps/gcc/4.9.2/bin/../lib/gcc/x86_64-unknown-linux-gnu/4.9.2/ -mtune=corei7 -march=x86-64 -g -Og
REM COMMAND_LINE
REM seed 455690063 1765245445 -1035115962 452226815 70792745 897024584 -248624955 -1007554048 1123337291 1412698098 2089583411 -470275301
REM
REM Se 3|2.1|7|7|9|40:41:32(qc=5)
REM Ag 3|2.2|7|7|9|40U:50:41:42(qc=5)
REM 
CELL 1.54180    6.60603    6.60603    7.12285   62.37250   62.37250   60.00000
LATT -1
SFAC Se Ag 
Se     1 -0.2878411239771  0.0568546710318 -0.0446839896006 1.0
Se     1  0.0568546710318  0.2756704425459 -0.0446839896006 1.0
Se     1  0.2756704425459 -0.2878411239771 -0.0446839896006 1.0
Se     1 -0.1452546716350 -0.1452546716350  0.4357640149050 1.0
Ag     2  0.3017135923866 -0.0360054387236  0.2487658855973 1.0
Ag     2 -0.0360054387236 -0.5144740392604  0.2487658855973 1.0
Ag     2 -0.5144740392604  0.3017135923866  0.2487658855973 1.0
Ag     2  0.5228055208215  0.1722433693659 -0.3465494314656 1.0
Ag     2  0.1722433693659 -0.3484994587218 -0.3465494314656 1.0
Ag     2 -0.3484994587218  0.5228055208215 -0.3465494314656 1.0
Ag     2 -0.3194794650418 -0.3194794650418 -0.0415616048745 1.0
Ag     2  0.1288705012079  0.1288705012079 -0.3866115036236 1.0
END
