TITL 4Ag2SE-200803-154818-d993e1 -0.0051 234.067890 -4.61181869E+004 0 0 12 (P2/m) n - 1
REM
REM Run started: Mon, 03 Aug 2020 16:42:08 +0100 in /lustre/scratch/uccabz1/launch_tmp/launcher_2020-08-03-14-48-16-286356
REM CASTEP 20.1 from code version af48c487+ pr-geom-scf-spinfix Tue Jun 2 15:39:59 2020 +0100
REM Functional PBE for solids (2008) Relativity Koelling-Harmon Dispersion off
REM Cut-off 300.0000 eV Grid scale 1.7500 Gmax 15.5288 1/A FBSC none
REM MP grid 4 3 2 Offset 0.000 0.000 0.000 No. kpts 6 Spacing 0.07
REM Total runtime: 3518.13 s
REM Overall efficiency: 73.8462 %
REM
REM 4Ag2SE.cell (6404a18c6b5dc90313b5c56acf317f23)
REM
REM compiler GCC version 4.9.2
REM options -cpp -iprefix /lustre/shared/ucl/apps/gcc/4.9.2/bin/../lib/gcc/x86_64-unknown-linux-gnu/4.9.2/ -mtune=corei7 -march=x86-64 -g -Og
REM COMMAND_LINE
REM seed 1330290790 1187032376 -1192816731 -1120317356 655612001 1637440125 2010944402 114264650 -1332371986 -1982571787 1489475606 1547163501
REM
REM Se 3|2.1|7|7|9|40:41:32(qc=5)
REM Ag 3|2.2|7|7|9|40U:50:41:42(qc=5)
REM 
CELL 1.54180    4.24166    6.79038    8.12671   90.20421   90.00000   90.00000
LATT -1
SFAC Se Ag 
Se     1  0.3258905069261  0.2365904319028 -0.0875732324316 1.0
Se     1  0.3258905069261 -0.2365904319028  0.0875732324316 1.0
Se     1 -0.1724375350270 -0.2372357890965 -0.4090394345118 1.0
Se     1 -0.1724375350270  0.2372357890965  0.4090394345118 1.0
Ag     2 -0.1763366656363 -0.3303672153981 -0.0965348834067 1.0
Ag     2 -0.1763366656363  0.3303672153981  0.0965348834067 1.0
Ag     2  0.3240788952896  0.4589734469015  0.3123248844414 1.0
Ag     2  0.3240788952896 -0.4589734469015 -0.3123248844414 1.0
Ag     2 -0.1759969415742  0.2769014520697 -0.2754060694643 1.0
Ag     2 -0.1759969415742 -0.2769014520697  0.2754060694643 1.0
Ag     2  0.3256619400217 -0.0271749722341 -0.3172735638225 1.0
Ag     2  0.3256619400217  0.0271749722341  0.3172735638225 1.0
END
