TITL 4Ag2Se_TETRA_OPT-200811-103742-8609b3 0.0386 222.049028 -4.61186635E+004 0 0 12 (P21) n - 1
REM
REM Run started: Tue, 11 Aug 2020 11:30:33 +0100 in /lustre/scratch/uccabz1/launch_tmp/launcher_2020-08-11-09-37-41-071747
REM CASTEP 20.1 from code version af48c487+ pr-geom-scf-spinfix Tue Jun 2 15:39:59 2020 +0100
REM Functional PBE for solids (2008) Relativity Koelling-Harmon Dispersion off
REM Cut-off 300.0000 eV Grid scale 1.7500 Gmax 15.5288 1/A FBSC none
REM MP grid 3 3 3 Offset 0.000 0.000 0.000 No. kpts 10 Spacing 0.07
REM Total runtime: 3256.21 s
REM Overall efficiency: 87.125 %
REM
REM 4Ag2Se_TETRA_OPT.cell (db6eaae92e6a5f18c152ebab86a92a61)
REM
REM compiler GCC version 4.9.2
REM options -cpp -iprefix /lustre/shared/ucl/apps/gcc/4.9.2/bin/../lib/gcc/x86_64-unknown-linux-gnu/4.9.2/ -mtune=corei7 -march=x86-64 -g -Og
REM COMMAND_LINE
REM seed -2045247471 1326892010 -16684191 -14577751 52781382 250983132 -68171393 1003496924 -844632489 1855474238 791408194 -677286680
REM
REM Se 3|2.1|7|7|9|40:41:32(qc=5)
REM Ag 3|2.2|7|7|9|40U:50:41:42(qc=5)
REM 
CELL 1.54180    4.93878    6.89457    6.53915   85.74339   90.00000   90.00000
LATT -1
SFAC Se Ag 
Se     1  0.2118527390629  0.2892511321653 -0.0787084262582 1.0
Se     1 -0.2881472609371 -0.2892511321653  0.0787084262582 1.0
Se     1  0.2152439550442 -0.3017934516225 -0.5289180924346 1.0
Se     1 -0.2847560449558  0.3017934516225  0.5289180924346 1.0
Ag     2 -0.4305328505073  0.0190067714792 -0.1581548590938 1.0
Ag     2  0.0694671494927 -0.0190067714792  0.1581548590938 1.0
Ag     2 -0.2917642687945  0.3143013772494  0.1056451090812 1.0
Ag     2  0.2082357312055 -0.3143013772494 -0.1056451090812 1.0
Ag     2 -0.2875406473122 -0.3380735869844 -0.3303663587353 1.0
Ag     2  0.2124593526878  0.3380735869844  0.3303663587353 1.0
Ag     2 -0.4347055274932 -0.0235167488045  0.3747653316403 1.0
Ag     2  0.0652944725068  0.0235167488045 -0.3747653316403 1.0
END
