TITL 4Ag2Se_TETRA_OPT-200811-090526-547c43 -0.0036 227.101127 -4.61185538E+004 0 0 12 (P1) n - 1
REM
REM Run started: Tue, 11 Aug 2020 11:05:32 +0100 in /lustre/scratch/uccabz1/launch_tmp/launcher_2020-08-11-08-05-24-871321
REM CASTEP 20.1 from code version af48c487+ pr-geom-scf-spinfix Tue Jun 2 15:39:59 2020 +0100
REM Functional PBE for solids (2008) Relativity Koelling-Harmon Dispersion off
REM Cut-off 300.0000 eV Grid scale 1.7500 Gmax 15.5288 1/A FBSC none
REM MP grid 4 3 3 Offset 0.000 0.000 0.000 No. kpts 18 Spacing 0.07
REM Total runtime: 8163.2 s
REM Overall efficiency: 81.6667 %
REM
REM 4Ag2Se_TETRA_OPT.cell (db6eaae92e6a5f18c152ebab86a92a61)
REM
REM compiler GCC version 4.9.2
REM options -cpp -iprefix /lustre/shared/ucl/apps/gcc/4.9.2/bin/../lib/gcc/x86_64-unknown-linux-gnu/4.9.2/ -mtune=corei7 -march=x86-64 -g -Og
REM COMMAND_LINE
REM seed -1546099336 -1551063376 1066762400 1934733023 1060119368 -1365960119 68175245 -1143314754 -1213288581 490048387 -687639326 288199035
REM
REM Se 3|2.1|7|7|9|40:41:32(qc=5)
REM Ag 3|2.2|7|7|9|40U:50:41:42(qc=5)
REM 
CELL 1.54180    4.68225    7.03922    6.90370   92.54202   87.51210   89.85881
LATT -1
SFAC Se Ag 
Se     1 -0.4826355264361 -0.4550362855595  0.2984245886245 1.0
Se     1  0.2750930721370  0.0421751053152  0.3243189577229 1.0
Se     1 -0.3105364625934  0.0636381636778 -0.2674014349577 1.0
Se     1  0.1859609399054 -0.3408104693266 -0.2451476488512 1.0
Ag     2 -0.4836809857802  0.3021945422280  0.0060373701979 1.0
Ag     2 -0.1761572829865  0.2434916988379  0.3455876642321 1.0
Ag     2 -0.3038679776928 -0.4914761345236 -0.3191398000912 1.0
Ag     2  0.0637985610132  0.0388958301230 -0.0084651004738 1.0
Ag     2  0.0090325289178 -0.4538735929953  0.0890356030466 1.0
Ag     2 -0.4279395430419 -0.1904597181505  0.0118836294505 1.0
Ag     2 -0.1335448908643 -0.1888229784344  0.4070581572148 1.0
Ag     2  0.1992342674216  0.2742924388080 -0.3365511861154 1.0
END
