TITL 4Ag2SE-200803-161110-1e3fa5 0.0192 217.436712 -4.61185251E+004 0 0 12 (P212121) n - 1
REM
REM Run started: Mon, 03 Aug 2020 16:57:51 +0100 in /lustre/scratch/uccabz1/launch_tmp/launcher_2020-08-03-15-11-08-460784
REM CASTEP 20.1 from code version af48c487+ pr-geom-scf-spinfix Tue Jun 2 15:39:59 2020 +0100
REM Functional PBE for solids (2008) Relativity Koelling-Harmon Dispersion off
REM Cut-off 300.0000 eV Grid scale 1.7500 Gmax 15.5288 1/A FBSC none
REM MP grid 4 3 2 Offset 0.000 0.000 0.000 No. kpts 6 Spacing 0.07
REM Total runtime: 2851.77 s
REM Overall efficiency: 72.3636 %
REM
REM 4Ag2SE.cell (6404a18c6b5dc90313b5c56acf317f23)
REM
REM compiler GCC version 4.9.2
REM options -cpp -iprefix /lustre/shared/ucl/apps/gcc/4.9.2/bin/../lib/gcc/x86_64-unknown-linux-gnu/4.9.2/ -mtune=corei7 -march=x86-64 -g -Og
REM COMMAND_LINE
REM seed 1722874617 965766833 1898503185 902253527 -1163609257 -1309354391 -1457578381 1202802753 -1238720303 1336913612 -932690309 1225152344
REM
REM Se 3|2.1|7|7|9|40:41:32(qc=5)
REM Ag 3|2.2|7|7|9|40U:50:41:42(qc=5)
REM 
CELL 1.54180    4.57374    5.58130    8.51776   90.00000   90.00000   89.98977
LATT -1
SFAC Se Ag 
Se     1  0.1503544273415  0.5698423175751  0.3070634145514 1.0
Se     1 -0.1503544273415 -0.5698423175751 -0.1929365854486 1.0
Se     1 -0.3493923999088 -0.0700754919081  0.5379768619319 1.0
Se     1  0.3493923999088  0.0700754919081  0.0379768619319 1.0
Ag     2  0.1774413358558  0.0913207474718  0.3724197099926 1.0
Ag     2 -0.1774413358558 -0.0913207474718 -0.1275802900074 1.0
Ag     2  0.1960966961272 -0.3159145767240 -0.3658065076449 1.0
Ag     2 -0.1960966961272  0.3159145767240  0.1341934923551 1.0
Ag     2  0.3231025826419 -0.4102525682137 -0.0250215490276 1.0
Ag     2 -0.3231025826419  0.4102525682137  0.4749784509724 1.0
Ag     2  0.3042613654725  0.1835239376809 -0.2872600298034 1.0
Ag     2 -0.3042613654725 -0.1835239376809  0.2127399701966 1.0
END
