TITL 4Ag2Se_TETRA-200803-162207-5a9e48 -0.1078 234.035076 -4.61179781E+004 0 0 12 (Pcc2) n - 1
REM
REM Run started: Mon, 03 Aug 2020 17:04:09 +0100 in /lustre/scratch/uccabz1/launch_tmp/launcher_2020-08-03-15-22-05-874654
REM CASTEP 20.1 from code version af48c487+ pr-geom-scf-spinfix Tue Jun 2 15:39:59 2020 +0100
REM Functional PBE for solids (2008) Relativity Koelling-Harmon Dispersion off
REM Cut-off 300.0000 eV Grid scale 1.7500 Gmax 15.5288 1/A FBSC none
REM MP grid 3 3 3 Offset 0.000 0.000 0.000 No. kpts 8 Spacing 0.07
REM Total runtime: 2770.74 s
REM Overall efficiency: 91.3333 %
REM
REM 4Ag2Se_TETRA.cell (4020362940262d3df87d4014b41eb05e)
REM
REM compiler GCC version 4.9.2
REM options -cpp -iprefix /lustre/shared/ucl/apps/gcc/4.9.2/bin/../lib/gcc/x86_64-unknown-linux-gnu/4.9.2/ -mtune=corei7 -march=x86-64 -g -Og
REM COMMAND_LINE
REM seed -1820525691 346536214 -1274257593 -1215530492 655036905 1587772071 -1220278507 1507647462 628528801 -2051327813 -1136050008 1222965277
REM
REM Se 3|2.1|7|7|9|40:41:32(qc=5)
REM Ag 3|2.2|7|7|9|40U:50:41:42(qc=5)
REM 
CELL 1.54180    5.68678    5.87783    7.00160   90.00000   90.00000   90.00000
LATT -1
SFAC Se Ag 
Se     1  0.2088697151970  0.0087895989507 -0.2928485476286 1.0
Se     1 -0.2088697151970  0.0087895989507  0.2928485476286 1.0
Se     1  0.2088697151970 -0.4912104010493  0.2928485476286 1.0
Se     1 -0.2088697151970 -0.4912104010493 -0.2928485476286 1.0
Ag     2  0.3331882497207  0.4322606297007 -0.3402916353132 1.0
Ag     2 -0.3331882497207  0.4322606297007  0.3402916353132 1.0
Ag     2  0.3331882497207 -0.0677393702993  0.3402916353132 1.0
Ag     2 -0.3331882497207 -0.0677393702993 -0.3402916353132 1.0
Ag     2  0.2490822826975  0.2223314713487  0.0246792566940 1.0
Ag     2 -0.2490822826975  0.2223314713487 -0.0246792566940 1.0
Ag     2  0.2490822826975 -0.2776685286513 -0.0246792566940 1.0
Ag     2 -0.2490822826975 -0.2776685286513  0.0246792566940 1.0
END
