TITL 4Ag2Se_TETRA_OPT-200811-094854-7df23d -0.0241 227.669024 -4.61182925E+004 0 0 12 (P1) n - 1
REM
REM Run started: Tue, 11 Aug 2020 12:36:35 +0100 in /lustre/scratch/uccabz1/launch_tmp/launcher_2020-08-11-08-48-52-972805
REM CASTEP 20.1 from code version af48c487+ pr-geom-scf-spinfix Tue Jun 2 15:39:59 2020 +0100
REM Functional PBE for solids (2008) Relativity Koelling-Harmon Dispersion off
REM Cut-off 300.0000 eV Grid scale 1.7500 Gmax 15.5288 1/A FBSC none
REM MP grid 3 3 3 Offset 0.000 0.000 0.000 No. kpts 14 Spacing 0.07
REM Total runtime: 11085.5 s
REM Overall efficiency: 95.4615 %
REM
REM 4Ag2Se_TETRA_OPT.cell (db6eaae92e6a5f18c152ebab86a92a61)
REM
REM compiler GCC version 4.9.2
REM options -cpp -iprefix /lustre/shared/ucl/apps/gcc/4.9.2/bin/../lib/gcc/x86_64-unknown-linux-gnu/4.9.2/ -mtune=corei7 -march=x86-64 -g -Og
REM COMMAND_LINE
REM seed 968100736 2023114962 -1664454219 -713256309 -2028596257 -1992362040 126197879 -1337127852 -669091799 341222311 -2108601447 1460681354
REM
REM Se 3|2.1|7|7|9|40:41:32(qc=5)
REM Ag 3|2.2|7|7|9|40U:50:41:42(qc=5)
REM 
CELL 1.54180    5.02990    7.27791    6.70478   73.96925   88.35122   75.04446
LATT -1
SFAC Se Ag 
Se     1 -0.1836137321248 -0.4270772842818  0.1040668335751 1.0
Se     1  0.2160054205832  0.0987332189161 -0.0081236269331 1.0
Se     1  0.4543846171636 -0.4723552358328 -0.3211570629214 1.0
Se     1 -0.4489597588685  0.1354663631397  0.4725316268824 1.0
Ag     2 -0.2181971312134 -0.0449776192210 -0.0829943081401 1.0
Ag     2 -0.0540519728677  0.2702303578809 -0.3861051129867 1.0
Ag     2 -0.4437638846475 -0.1952658974063  0.3231937262480 1.0
Ag     2  0.3072126210144 -0.1219001152470 -0.2679888517391 1.0
Ag     2 -0.0887873143275 -0.3398262592929 -0.3085707993364 1.0
Ag     2  0.0024330705781 -0.0351964179272  0.3384136726847 1.0
Ag     2  0.2158386196870  0.5359539954808  0.3399153199545 1.0
Ag     2 -0.4259825549769  0.2989710937917  0.0687046827120 1.0
END
