TITL 4Ag2Se_TETRA_OPT-200811-104607-c208eb 0.0179 248.453992 -4.61179599E+004 0 0 12 (P2) n - 1
REM
REM Run started: Tue, 11 Aug 2020 11:12:41 +0100 in /lustre/scratch/uccabz1/launch_tmp/launcher_2020-08-11-09-46-05-772252
REM CASTEP 20.1 from code version af48c487+ pr-geom-scf-spinfix Tue Jun 2 15:39:59 2020 +0100
REM Functional PBE for solids (2008) Relativity Koelling-Harmon Dispersion off
REM Cut-off 300.0000 eV Grid scale 1.7500 Gmax 15.5288 1/A FBSC none
REM MP grid 3 3 2 Offset 0.000 0.000 0.000 No. kpts 6 Spacing 0.07
REM Total runtime: 1644.25 s
REM Overall efficiency: 73.5714 %
REM
REM 4Ag2Se_TETRA_OPT.cell (db6eaae92e6a5f18c152ebab86a92a61)
REM
REM compiler GCC version 4.9.2
REM options -cpp -iprefix /lustre/shared/ucl/apps/gcc/4.9.2/bin/../lib/gcc/x86_64-unknown-linux-gnu/4.9.2/ -mtune=corei7 -march=x86-64 -g -Og
REM COMMAND_LINE
REM seed 849070814 647401655 171233336 -50400133 956139120 74105079 975930616 123248454 1760784244 1548097547 -520618986 251088936
REM
REM Se 3|2.1|7|7|9|40:41:32(qc=5)
REM Ag 3|2.2|7|7|9|40U:50:41:42(qc=5)
REM 
CELL 1.54180    4.93926    6.93868    7.25091   91.13854   90.00000   90.00000
LATT -1
SFAC Se Ag 
Se     1  0.4206900060036  0.2074477990850 -0.2908390559060 1.0
Se     1  0.4206900060036 -0.2074477990850  0.2908390559060 1.0
Se     1 -0.2609117191724  0.1806535832697  0.2091932157192 1.0
Se     1 -0.2609117191724 -0.1806535832697 -0.2091932157192 1.0
Ag     2  0.3192495754719  0.4330299134471  0.1839831594203 1.0
Ag     2  0.3192495754719 -0.4330299134471 -0.1839831594203 1.0
Ag     2 -0.1791178336595  0.4592234590821 -0.3068245992892 1.0
Ag     2 -0.1791178336595 -0.4592234590821  0.3068245992892 1.0
Ag     2  0.0490508299413 -0.1952285377361  0.0601919054154 1.0
Ag     2  0.0490508299413  0.1952285377361 -0.0601919054154 1.0
Ag     2  0.0856525414151 -0.2003586696908 -0.4571104569151 1.0
Ag     2  0.0856525414151  0.2003586696908  0.4571104569151 1.0
END
