TITL 4Ag2SE-200803-160653-becb86 -0.1116 240.175933 -4.61178806E+004 0 0 12 (C2) n - 1
REM
REM Run started: Mon, 03 Aug 2020 18:05:56 +0100 in /lustre/scratch/uccabz1/launch_tmp/launcher_2020-08-03-15-06-51-755731
REM CASTEP 20.1 from code version af48c487+ pr-geom-scf-spinfix Tue Jun 2 15:39:59 2020 +0100
REM Functional PBE for solids (2008) Relativity Koelling-Harmon Dispersion off
REM Cut-off 300.0000 eV Grid scale 1.7500 Gmax 15.5288 1/A FBSC none
REM MP grid 4 3 3 Offset 0.000 0.000 0.000 No. kpts 12 Spacing 0.07
REM Total runtime: 7979.67 s
REM Overall efficiency: 90.5833 %
REM
REM 4Ag2SE.cell (6404a18c6b5dc90313b5c56acf317f23)
REM
REM compiler GCC version 4.9.2
REM options -cpp -iprefix /lustre/shared/ucl/apps/gcc/4.9.2/bin/../lib/gcc/x86_64-unknown-linux-gnu/4.9.2/ -mtune=corei7 -march=x86-64 -g -Og
REM COMMAND_LINE
REM seed 744138479 580337993 1822304786 -2077227742 689716660 1869222579 -136306827 1353378729 -758464938 -244205577 188408434 -742896223
REM
REM Se 3|2.1|7|7|9|40:41:32(qc=5)
REM Ag 3|2.2|7|7|9|40U:50:41:42(qc=5)
REM 
CELL 1.54180    5.36672    7.47660    7.47660  112.30315  106.21061  106.21061
LATT -1
SFAC Se Ag 
Se     1 -0.1180070727345  0.4873594919550 -0.0400910348320 1.0
Se     1  0.1180070727345  0.0400910348320 -0.4873594919550 1.0
Se     1  0.4008878110465 -0.2754360601357 -0.2579517667722 1.0
Se     1 -0.4008878110465  0.2579517667722  0.2754360601357 1.0
Ag     2 -0.2033598394240  0.1312693226530 -0.0263966403354 1.0
Ag     2  0.2033598394240  0.0263966403354 -0.1312693226530 1.0
Ag     2  0.1758866100497  0.3381526755530  0.4115693049567 1.0
Ag     2 -0.1758866100497 -0.4115693049567 -0.3381526755530 1.0
Ag     2  0.2806260278868 -0.1229266551600  0.1954844799699 1.0
Ag     2 -0.2806260278868 -0.1954844799699  0.1229266551600 1.0
Ag     2  0.3524749030620  0.4655685248254  0.1363025567037 1.0
Ag     2 -0.3524749030620 -0.1363025567037 -0.4655685248254 1.0
END
