TITL 4Ag2SE-200803-154820-e1d655 -0.0383 219.043149 -4.61180361E+004 0 0 12 (P2) n - 1
REM
REM Run started: Mon, 03 Aug 2020 16:38:43 +0100 in /lustre/scratch/uccabz1/launch_tmp/launcher_2020-08-03-14-48-18-454173
REM CASTEP 20.1 from code version af48c487+ pr-geom-scf-spinfix Tue Jun 2 15:39:59 2020 +0100
REM Functional PBE for solids (2008) Relativity Koelling-Harmon Dispersion off
REM Cut-off 300.0000 eV Grid scale 1.7500 Gmax 15.5288 1/A FBSC none
REM MP grid 4 4 2 Offset 0.000 0.000 0.000 No. kpts 8 Spacing 0.07
REM Total runtime: 3671.96 s
REM Overall efficiency: 94.75 %
REM
REM 4Ag2SE.cell (6404a18c6b5dc90313b5c56acf317f23)
REM
REM compiler GCC version 4.9.2
REM options -cpp -iprefix /lustre/shared/ucl/apps/gcc/4.9.2/bin/../lib/gcc/x86_64-unknown-linux-gnu/4.9.2/ -mtune=corei7 -march=x86-64 -g -Og
REM COMMAND_LINE
REM seed -1195839469 -1932220946 2058289131 1786399059 -1920565573 -416482512 -333298453 -1942402398 -982954966 -910680706 -1834857254 -550069580
REM
REM Se 3|2.1|7|7|9|40:41:32(qc=5)
REM Ag 3|2.2|7|7|9|40U:50:41:42(qc=5)
REM 
CELL 1.54180    3.94661    3.92294   14.15247   91.44522   90.00000   90.00000
LATT -1
SFAC Se Ag 
Se     1  0.1771454476165 -0.2264658018010 -0.2826965699105 1.0
Se     1  0.1771454476165  0.2264658018010  0.2826965699105 1.0
Se     1 -0.3724844674578  0.1316092538681 -0.0919916151328 1.0
Se     1 -0.3724844674578 -0.1316092538681  0.0919916151328 1.0
Ag     2  0.1815522887005  0.2572353659789 -0.4272040798082 1.0
Ag     2  0.1815522887005 -0.2572353659789  0.4272040798082 1.0
Ag     2 -0.3183897075092 -0.2805546528805  0.2713055568333 1.0
Ag     2 -0.3183897075092  0.2805546528805 -0.2713055568333 1.0
Ag     2  0.1292464035760 -0.3765303209032 -0.0932276786617 1.0
Ag     2  0.1292464035760  0.3765303209032  0.0932276786617 1.0
Ag     2 -0.3188528649259 -0.2424632822273 -0.4257029573762 1.0
Ag     2 -0.3188528649259  0.2424632822273  0.4257029573762 1.0
END
