TITL 4Ag2Se_TETRA-200803-165622-5b50c6 -0.0228 250.713620 -4.61165728E+004 0 0 12 (P-1) n - 1
REM
REM Run started: Mon, 03 Aug 2020 18:01:24 +0100 in /lustre/scratch/uccabz1/launch_tmp/launcher_2020-08-03-15-56-20-506667
REM CASTEP 20.1 from code version af48c487+ pr-geom-scf-spinfix Tue Jun 2 15:39:59 2020 +0100
REM Functional PBE for solids (2008) Relativity Koelling-Harmon Dispersion off
REM Cut-off 300.0000 eV Grid scale 1.7500 Gmax 15.5288 1/A FBSC none
REM MP grid 4 4 2 Offset 0.000 0.000 0.000 No. kpts 16 Spacing 0.07
REM Total runtime: 4322.34 s
REM Overall efficiency: 93 %
REM
REM 4Ag2Se_TETRA.cell (4020362940262d3df87d4014b41eb05e)
REM
REM compiler GCC version 4.9.2
REM options -cpp -iprefix /lustre/shared/ucl/apps/gcc/4.9.2/bin/../lib/gcc/x86_64-unknown-linux-gnu/4.9.2/ -mtune=corei7 -march=x86-64 -g -Og
REM COMMAND_LINE
REM seed -2054357886 351665625 1946844702 1247484434 -421748511 -439428774 1879880871 -321154452 1443226175 -1115423983 238049981 830781610
REM
REM Se 3|2.1|7|7|9|40:41:32(qc=5)
REM Ag 3|2.2|7|7|9|40U:50:41:42(qc=5)
REM 
CELL 1.54180    4.44011    4.47371   12.62217   89.75854   90.40331   89.78554
LATT -1
SFAC Se Ag 
Se     1  0.2015178271370 -0.2410923390457 -0.1024671606723 1.0
Se     1 -0.2015178271370  0.2410923390457  0.1024671606723 1.0
Se     1  0.2483317716665  0.3137778097212  0.3858503187869 1.0
Se     1 -0.2483317716665 -0.3137778097212 -0.3858503187869 1.0
Ag     2  0.2502206524615 -0.1876323114904  0.4902753294408 1.0
Ag     2 -0.2502206524615  0.1876323114904 -0.4902753294408 1.0
Ag     2 -0.1216136258472  0.0903149086978 -0.2426097201361 1.0
Ag     2  0.1216136258472 -0.0903149086978  0.2426097201361 1.0
Ag     2 -0.4815743923866 -0.2531137442536  0.0811894382445 1.0
Ag     2  0.4815743923866  0.2531137442536 -0.0811894382445 1.0
Ag     2  0.2648742200044 -0.4450240791204 -0.2923036638869 1.0
Ag     2 -0.2648742200044  0.4450240791204  0.2923036638869 1.0
END
