TITL 4Ag2Se_TETRA_OPT-200811-095146-60a8f2 0.0601 225.942548 -4.61179541E+004 0 0 12 (P21212) n - 1
REM
REM Run started: Tue, 11 Aug 2020 10:20:29 +0100 in /lustre/scratch/uccabz1/launch_tmp/launcher_2020-08-11-08-51-44-209460
REM CASTEP 20.1 from code version af48c487+ pr-geom-scf-spinfix Tue Jun 2 15:39:59 2020 +0100
REM Functional PBE for solids (2008) Relativity Koelling-Harmon Dispersion off
REM Cut-off 300.0000 eV Grid scale 1.7500 Gmax 15.5288 1/A FBSC none
REM MP grid 4 3 2 Offset 0.000 0.000 0.000 No. kpts 4 Spacing 0.07
REM Total runtime: 1788.9 s
REM Overall efficiency: 76.25 %
REM
REM 4Ag2Se_TETRA_OPT.cell (db6eaae92e6a5f18c152ebab86a92a61)
REM
REM compiler GCC version 4.9.2
REM options -cpp -iprefix /lustre/shared/ucl/apps/gcc/4.9.2/bin/../lib/gcc/x86_64-unknown-linux-gnu/4.9.2/ -mtune=corei7 -march=x86-64 -g -Og
REM COMMAND_LINE
REM seed 1770482052 -711977339 2048547400 1552217903 -1344283773 2104042921 1450464338 8173621 -741019417 -407911718 -514880067 -1674611307
REM
REM Se 3|2.1|7|7|9|40:41:32(qc=5)
REM Ag 3|2.2|7|7|9|40U:50:41:42(qc=5)
REM 
CELL 1.54180    4.70328    6.54042    7.34499   90.00000   90.00000   90.00000
LATT -1
SFAC Se Ag 
Se     1 -0.0000000000000  0.1732981388297  0.0000000000000 1.0
Se     1  0.5000000000000 -0.1732981388297  0.5000000000000 1.0
Se     1 -0.5000000000000 -0.4094825734766  0.0000000000000 1.0
Se     1 -0.0000000000000  0.4094825734766  0.5000000000000 1.0
Ag     2  0.0189328045391 -0.3697517082267 -0.1953861149119 1.0
Ag     2 -0.0189328045391 -0.3697517082267  0.1953861149119 1.0
Ag     2 -0.4810671954609  0.3697517082267 -0.3046138850881 1.0
Ag     2  0.4810671954609  0.3697517082267  0.3046138850881 1.0
Ag     2 -0.3787961161261 -0.0443093293628 -0.1682260179687 1.0
Ag     2  0.3787961161261 -0.0443093293628  0.1682260179687 1.0
Ag     2  0.1212038838739  0.0443093293628 -0.3317739820313 1.0
Ag     2 -0.1212038838739  0.0443093293628  0.3317739820313 1.0
END
