TITL 4Ag2SE-200803-160703-c2a025 0.0465 229.697327 -4.61176453E+004 0 0 12 (P3) n - 1
REM
REM Run started: Mon, 03 Aug 2020 16:47:29 +0100 in /lustre/scratch/uccabz1/launch_tmp/launcher_2020-08-03-15-07-02-068569
REM CASTEP 20.1 from code version af48c487+ pr-geom-scf-spinfix Tue Jun 2 15:39:59 2020 +0100
REM Functional PBE for solids (2008) Relativity Koelling-Harmon Dispersion off
REM Cut-off 300.0000 eV Grid scale 1.7500 Gmax 15.5288 1/A FBSC none
REM MP grid 3 3 3 Offset 0.000 0.000 0.000 No. kpts 8 Spacing 0.07
REM Total runtime: 2496.68 s
REM Overall efficiency: 91.5714 %
REM
REM 4Ag2SE.cell (6404a18c6b5dc90313b5c56acf317f23)
REM
REM compiler GCC version 4.9.2
REM options -cpp -iprefix /lustre/shared/ucl/apps/gcc/4.9.2/bin/../lib/gcc/x86_64-unknown-linux-gnu/4.9.2/ -mtune=corei7 -march=x86-64 -g -Og
REM COMMAND_LINE
REM seed 631087799 -1049130479 1436304609 828895040 -14275651 1008049273 813685220 -440971548 631904893 -1725382679 1766863009 419475994
REM
REM Se 3|2.1|7|7|9|40:41:32(qc=5)
REM Ag 3|2.2|7|7|9|40U:50:41:42(qc=5)
REM 
CELL 1.54180    5.23003    7.12132    7.12132  120.00000   90.00000   90.00000
LATT -1
SFAC Se Ag 
Se     1  0.2927207926185  0.3601951696472  0.3937822929470 1.0
Se     1  0.2927207926185 -0.3937822929470 -0.0335870232998 1.0
Se     1  0.2927207926185  0.0335870232998 -0.3601951696472 1.0
Se     1 -0.1758729677858 -0.0000000333333  0.0000000333333 1.0
Ag     2 -0.4175306118963  0.3976769148563  0.1093371447519 1.0
Ag     2 -0.4175306118963 -0.1093371447519  0.2883398701045 1.0
Ag     2 -0.4175306118963 -0.2883398701045 -0.3976769148563 1.0
Ag     2 -0.1907874777366 -0.4295677779935 -0.1154407634058 1.0
Ag     2 -0.1907874777366  0.1154407634058 -0.3141269145877 1.0
Ag     2 -0.1907874777366  0.3141269145877  0.4295677779935 1.0
Ag     2  0.0288150942438 -0.3333333666667  0.3333333666667 1.0
Ag     2  0.3131844645849 -0.0000000333333  0.0000000333333 1.0
END
