TITL 4Ag2Se_TETRA_OPT-200811-105824-99d1b9 -0.1681 230.688416 -4.61184056E+004 0 0 12 (P21) n - 1
REM
REM Run started: Tue, 11 Aug 2020 12:14:52 +0100 in /lustre/scratch/uccabz1/launch_tmp/launcher_2020-08-11-09-58-22-742071
REM CASTEP 20.1 from code version af48c487+ pr-geom-scf-spinfix Tue Jun 2 15:39:59 2020 +0100
REM Functional PBE for solids (2008) Relativity Koelling-Harmon Dispersion off
REM Cut-off 300.0000 eV Grid scale 1.7500 Gmax 15.5288 1/A FBSC none
REM MP grid 4 3 2 Offset 0.000 0.000 0.000 No. kpts 8 Spacing 0.07
REM Total runtime: 5276.09 s
REM Overall efficiency: 86.5 %
REM
REM 4Ag2Se_TETRA_OPT.cell (db6eaae92e6a5f18c152ebab86a92a61)
REM
REM compiler GCC version 4.9.2
REM options -cpp -iprefix /lustre/shared/ucl/apps/gcc/4.9.2/bin/../lib/gcc/x86_64-unknown-linux-gnu/4.9.2/ -mtune=corei7 -march=x86-64 -g -Og
REM COMMAND_LINE
REM seed 1691959188 -1247470442 -1926766728 -1082432898 806326169 -248468019 193798282 -1863240055 585638068 -1600025942 1794184669 1810377392
REM
REM Se 3|2.1|7|7|9|40:41:32(qc=5)
REM Ag 3|2.2|7|7|9|40U:50:41:42(qc=5)
REM 
CELL 1.54180    4.14095    6.83872    8.16090   90.00000   86.55262   90.00000
LATT -1
SFAC Se Ag 
Se     1 -0.1130635258552 -0.3949134877166  0.3649052198647 1.0
Se     1  0.1130635258552  0.1050865122834 -0.3649052198647 1.0
Se     1 -0.3747008893727  0.0749436334662  0.1534679597060 1.0
Se     1  0.3747008893727 -0.4250563665338 -0.1534679597060 1.0
Ag     2 -0.4194471042774  0.3555816414580  0.5619715890264 1.0
Ag     2  0.4194471042774 -0.1444183585420 -0.5619715890264 1.0
Ag     2 -0.1049642922380 -0.2731596486615 -0.3240974303069 1.0
Ag     2  0.1049642922380  0.2268403513385  0.3240974303069 1.0
Ag     2  0.4288579028796 -0.4205276170841  0.1637269794952 1.0
Ag     2 -0.4288579028796  0.0794723829159 -0.1637269794952 1.0
Ag     2  0.0619402462959 -0.1388463214620  0.0016028728268 1.0
Ag     2 -0.0619402462959  0.3611536785380 -0.0016028728268 1.0
END
