TITL 4Ag2SE-200803-155101-7bc307 0.0176 222.199204 -4.61183507E+004 0 0 12 (P21) n - 1
REM
REM Run started: Mon, 03 Aug 2020 16:13:21 +0100 in /lustre/scratch/uccabz1/launch_tmp/launcher_2020-08-03-14-50-59-218937
REM CASTEP 20.1 from code version af48c487+ pr-geom-scf-spinfix Tue Jun 2 15:39:59 2020 +0100
REM Functional PBE for solids (2008) Relativity Koelling-Harmon Dispersion off
REM Cut-off 300.0000 eV Grid scale 1.7500 Gmax 15.5288 1/A FBSC none
REM MP grid 3 3 2 Offset 0.000 0.000 0.000 No. kpts 6 Spacing 0.07
REM Total runtime: 1412.17 s
REM Overall efficiency: 68.4286 %
REM
REM 4Ag2SE.cell (6404a18c6b5dc90313b5c56acf317f23)
REM
REM compiler GCC version 4.9.2
REM options -cpp -iprefix /lustre/shared/ucl/apps/gcc/4.9.2/bin/../lib/gcc/x86_64-unknown-linux-gnu/4.9.2/ -mtune=corei7 -march=x86-64 -g -Og
REM COMMAND_LINE
REM seed 2063276664 294939877 443743002 234417474 -2103656556 1671157825 1030428181 -2059801844 864164867 1725032600 371124520 816657798
REM
REM Se 3|2.1|7|7|9|40:41:32(qc=5)
REM Ag 3|2.2|7|7|9|40U:50:41:42(qc=5)
REM 
CELL 1.54180    4.98193    5.42285    8.30689   90.00000   98.06899   90.00000
LATT -1
SFAC Se Ag 
Se     1  0.2130256803933 -0.4778751300703  0.1716652099934 1.0
Se     1 -0.2130256803933  0.0221248699297 -0.1716652099934 1.0
Se     1 -0.1403140508257  0.1277047180441  0.3920905380488 1.0
Se     1  0.1403140508257 -0.3722952819559 -0.3920905380488 1.0
Ag     2 -0.3985575571183 -0.5130843382465 -0.4754643837981 1.0
Ag     2  0.3985575571183 -0.0130843382465  0.4754643837981 1.0
Ag     2 -0.3831511821323  0.2429810422810  0.0890089825694 1.0
Ag     2  0.3831511821323 -0.2570189577190 -0.0890089825694 1.0
Ag     2  0.3118172872009  0.2349599545036 -0.2295908874378 1.0
Ag     2 -0.3118172872009 -0.2650400454964  0.2295908874378 1.0
Ag     2 -0.1303402966838  0.5177353534882 -0.1341550304991 1.0
Ag     2  0.1303402966838  0.0177353534882  0.1341550304991 1.0
END
