TITL 4Ag2Se_TETRA-200803-165737-d85eb7 0.0164 223.981381 -4.61176099E+004 0 0 12 (Cc) n - 1
REM
REM Run started: Mon, 03 Aug 2020 17:37:35 +0100 in /lustre/scratch/uccabz1/launch_tmp/launcher_2020-08-03-15-57-36-060184
REM CASTEP 20.1 from code version af48c487+ pr-geom-scf-spinfix Tue Jun 2 15:39:59 2020 +0100
REM Functional PBE for solids (2008) Relativity Koelling-Harmon Dispersion off
REM Cut-off 300.0000 eV Grid scale 1.7500 Gmax 15.5288 1/A FBSC none
REM MP grid 3 3 3 Offset 0.000 0.000 0.000 No. kpts 10 Spacing 0.07
REM Total runtime: 2666.6 s
REM Overall efficiency: 90.75 %
REM
REM 4Ag2Se_TETRA.cell (4020362940262d3df87d4014b41eb05e)
REM
REM compiler GCC version 4.9.2
REM options -cpp -iprefix /lustre/shared/ucl/apps/gcc/4.9.2/bin/../lib/gcc/x86_64-unknown-linux-gnu/4.9.2/ -mtune=corei7 -march=x86-64 -g -Og
REM COMMAND_LINE
REM seed -1338718654 836912830 -1476583530 -124466512 -1027092457 -604678851 -759387934 -1122858584 -1590678672 -1133938021 1098158575 -721730221
REM
REM Se 3|2.1|7|7|9|40:41:32(qc=5)
REM Ag 3|2.2|7|7|9|40U:50:41:42(qc=5)
REM 
CELL 1.54180    6.57854    5.90910    5.90910  100.75002   85.52740   85.52740
LATT -1
SFAC Se Ag 
Se     1 -0.1865413353006  0.0928082716709  0.4427375438005 1.0
Se     1  0.3134586646994  0.4427375438005  0.0928082716709 1.0
Se     1 -0.1898318936736 -0.3428266790057 -0.1227819559697 1.0
Se     1  0.3101681063264 -0.1227819559697 -0.3428266790057 1.0
Ag     2  0.0027378949809 -0.3401819839836  0.4553730534543 1.0
Ag     2 -0.4972621050191  0.4553730534543 -0.3401819839836 1.0
Ag     2 -0.2948537332443  0.4247202832778  0.2230640215241 1.0
Ag     2  0.2051462667557  0.2230640215241  0.4247202832778 1.0
Ag     2  0.1175910822117 -0.1360336981043  0.0757230929005 1.0
Ag     2 -0.3824089177883  0.0757230929005 -0.1360336981043 1.0
Ag     2  0.0133583850258  0.2373206554921 -0.1311407050569 1.0
Ag     2 -0.4866416149742 -0.1311407050569  0.2373206554921 1.0
END
