TITL 4Ag2SE-200803-155106-08c66d -0.0492 236.656720 -4.61177238E+004 0 0 12 (Cmce) n - 1
REM
REM Run started: Mon, 03 Aug 2020 17:04:24 +0100 in /lustre/scratch/uccabz1/launch_tmp/launcher_2020-08-03-14-51-03-608817
REM CASTEP 20.1 from code version af48c487+ pr-geom-scf-spinfix Tue Jun 2 15:39:59 2020 +0100
REM Functional PBE for solids (2008) Relativity Koelling-Harmon Dispersion off
REM Cut-off 300.0000 eV Grid scale 1.7500 Gmax 15.5288 1/A FBSC none
REM MP grid 3 3 3 Offset 0.000 0.000 0.000 No. kpts 8 Spacing 0.07
REM Total runtime: 5041.9 s
REM Overall efficiency: 94.3 %
REM
REM 4Ag2SE.cell (6404a18c6b5dc90313b5c56acf317f23)
REM
REM compiler GCC version 4.9.2
REM options -cpp -iprefix /lustre/shared/ucl/apps/gcc/4.9.2/bin/../lib/gcc/x86_64-unknown-linux-gnu/4.9.2/ -mtune=corei7 -march=x86-64 -g -Og
REM COMMAND_LINE
REM seed -444218880 -1852854027 -1195738848 2038231730 -1248136674 -400998723 -1618389725 -2004914108 -1996598344 -1527860164 -845584663 529875971
REM
REM Se 3|2.1|7|7|9|40:41:32(qc=5)
REM Ag 3|2.2|7|7|9|40U:50:41:42(qc=5)
REM 
CELL 1.54180    5.49938    7.63265    7.63265  132.38121   90.00000   90.00000
LATT -1
SFAC Se Ag 
Se     1 -0.3889405596091  0.2358741324890  0.0129007655602 1.0
Se     1  0.3889405596091  0.0129007655602  0.2358741324890 1.0
Se     1  0.1110594403909  0.5129007655602 -0.2641258675110 1.0
Se     1 -0.1110594403909 -0.2641258675110  0.5129007655602 1.0
Ag     2 -0.2492770838165 -0.1885028371491 -0.0606039908368 1.0
Ag     2  0.2492770838165 -0.0606039908368 -0.1885028371491 1.0
Ag     2  0.2507229161835  0.4393960091632  0.3114971628509 1.0
Ag     2 -0.2507229161835  0.3114971628509  0.4393960091632 1.0
Ag     2  0.0034320298937 -0.3706853186611  0.1276166485978 1.0
Ag     2 -0.0034320298937  0.1276166485978 -0.3706853186611 1.0
Ag     2  0.5034320298937 -0.3723833514022  0.1293146813389 1.0
Ag     2 -0.5034320298937  0.1293146813389 -0.3723833514022 1.0
END
