TITL 4Ag2SE-200803-160651-7ebdb5 0.0052 244.442034 -4.61173879E+004 0 0 12 (Fmm2) n - 1
REM
REM Run started: Mon, 03 Aug 2020 16:22:00 +0100 in /lustre/scratch/uccabz1/launch_tmp/launcher_2020-08-03-15-06-49-941004
REM CASTEP 20.1 from code version af48c487+ pr-geom-scf-spinfix Tue Jun 2 15:39:59 2020 +0100
REM Functional PBE for solids (2008) Relativity Koelling-Harmon Dispersion off
REM Cut-off 300.0000 eV Grid scale 1.7500 Gmax 15.5288 1/A FBSC none
REM MP grid 4 3 2 Offset 0.000 0.000 0.000 No. kpts 6 Spacing 0.07
REM Total runtime: 1121.02 s
REM Overall efficiency: 72 %
REM
REM 4Ag2SE.cell (6404a18c6b5dc90313b5c56acf317f23)
REM
REM compiler GCC version 4.9.2
REM options -cpp -iprefix /lustre/shared/ucl/apps/gcc/4.9.2/bin/../lib/gcc/x86_64-unknown-linux-gnu/4.9.2/ -mtune=corei7 -march=x86-64 -g -Og
REM COMMAND_LINE
REM seed -1802429829 1134364776 -603701328 -1542709664 -268891384 142868477 1648775999 -2085118664 -876941747 923248747 507870309 755133881
REM
REM Se 3|2.1|7|7|9|40:41:32(qc=5)
REM Ag 3|2.2|7|7|9|40U:50:41:42(qc=5)
REM 
CELL 1.54180    4.66988    7.24606    7.63088   90.00000   90.00000  108.79819
LATT -1
SFAC Se Ag 
Se     1 -0.1255993079859  0.2488013840282 -0.4096470105172 1.0
Se     1  0.1255993079859 -0.2488013840282 -0.4096470105172 1.0
Se     1  0.3744006920141  0.2488013840282  0.0903529894828 1.0
Se     1 -0.3744006920141 -0.2488013840282  0.0903529894828 1.0
Ag     2  0.3945497195525  0.2890994391049 -0.2564873079709 1.0
Ag     2 -0.3945497195525 -0.2890994391049 -0.2564873079709 1.0
Ag     2 -0.1054502804475  0.2890994391049  0.2435126920291 1.0
Ag     2  0.1054502804475 -0.2890994391049  0.2435126920291 1.0
Ag     2 -0.1969501285678  0.1060997428644 -0.0880165815119 1.0
Ag     2  0.1969501285678 -0.1060997428644 -0.0880165815119 1.0
Ag     2  0.3030498714322  0.1060997428644  0.4119834184881 1.0
Ag     2 -0.3030498714322 -0.1060997428644  0.4119834184881 1.0
END
