TITL 4Ag2SE-200803-154822-c63f13 0.0685 212.115145 -4.61176800E+004 0 0 12 (P42/mnm) n - 1
REM
REM Run started: Mon, 03 Aug 2020 15:56:39 +0100 in /lustre/scratch/uccabz1/launch_tmp/launcher_2020-08-03-14-48-20-479148
REM CASTEP 20.1 from code version af48c487+ pr-geom-scf-spinfix Tue Jun 2 15:39:59 2020 +0100
REM Functional PBE for solids (2008) Relativity Koelling-Harmon Dispersion off
REM Cut-off 300.0000 eV Grid scale 1.7500 Gmax 15.5288 1/A FBSC none
REM MP grid 3 3 2 Offset 0.000 0.000 0.000 No. kpts 3 Spacing 0.07
REM Total runtime: 532.1 s
REM Overall efficiency: 66.8333 %
REM
REM 4Ag2SE.cell (6404a18c6b5dc90313b5c56acf317f23)
REM
REM compiler GCC version 4.9.2
REM options -cpp -iprefix /lustre/shared/ucl/apps/gcc/4.9.2/bin/../lib/gcc/x86_64-unknown-linux-gnu/4.9.2/ -mtune=corei7 -march=x86-64 -g -Og
REM COMMAND_LINE
REM seed -234125585 434333760 459623310 -2069154428 1796220620 911706943 2109320835 -826151794 -759329922 -927258132 -736029848 -329931722
REM
REM Se 3|2.1|7|7|9|40:41:32(qc=5)
REM Ag 3|2.2|7|7|9|40U:50:41:42(qc=5)
REM 
CELL 1.54180    5.04760    5.04760    8.32534   90.00000   90.00000   90.00000
LATT -1
SFAC Se Ag 
Se     1 -0.2264444292544 -0.2698221135308 -0.0688820000000 1.0
Se     1  0.2264444292544  0.2698221135308 -0.0688820000000 1.0
Se     1  0.2698221135308 -0.2264444292544  0.4311180000000 1.0
Se     1 -0.2698221135308  0.2264444292544  0.4311180000000 1.0
Ag     2  0.2210691363384  0.2808124429824  0.2624195683947 1.0
Ag     2 -0.2210691363384 -0.2808124429824  0.2624195683947 1.0
Ag     2 -0.2808124429824  0.2210691363384 -0.2375804316053 1.0
Ag     2  0.2808124429824 -0.2210691363384 -0.2375804316053 1.0
Ag     2  0.2808124429824 -0.2210691363384  0.0998164316053 1.0
Ag     2 -0.2808124429824  0.2210691363384  0.0998164316053 1.0
Ag     2  0.2210691363384  0.2808124429824 -0.4001835683947 1.0
Ag     2 -0.2210691363384 -0.2808124429824 -0.4001835683947 1.0
END
