TITL 4Ag2Se_TETRA_OPT-200811-090526-042a17 -0.0578 229.745776 -4.61184852E+004 0 0 12 (P1) n - 1
REM
REM Run started: Tue, 11 Aug 2020 11:28:50 +0100 in /lustre/scratch/uccabz1/launch_tmp/launcher_2020-08-11-08-05-24-871605
REM CASTEP 20.1 from code version af48c487+ pr-geom-scf-spinfix Tue Jun 2 15:39:59 2020 +0100
REM Functional PBE for solids (2008) Relativity Koelling-Harmon Dispersion off
REM Cut-off 300.0000 eV Grid scale 1.7500 Gmax 15.5288 1/A FBSC none
REM MP grid 3 3 3 Offset 0.000 0.000 0.000 No. kpts 14 Spacing 0.07
REM Total runtime: 9580.02 s
REM Overall efficiency: 95.1667 %
REM
REM 4Ag2Se_TETRA_OPT.cell (db6eaae92e6a5f18c152ebab86a92a61)
REM
REM compiler GCC version 4.9.2
REM options -cpp -iprefix /lustre/shared/ucl/apps/gcc/4.9.2/bin/../lib/gcc/x86_64-unknown-linux-gnu/4.9.2/ -mtune=corei7 -march=x86-64 -g -Og
REM COMMAND_LINE
REM seed -1542296071 1314519324 1360260968 -554509976 -547461783 823294646 1622153129 1545402368 -1474456851 1993981680 -1380129058 -1243375803
REM
REM Se 3|2.1|7|7|9|40:41:32(qc=5)
REM Ag 3|2.2|7|7|9|40U:50:41:42(qc=5)
REM 
CELL 1.54180    5.03765    6.80798    6.71255   90.01134   88.12480   93.14057
LATT -1
SFAC Se Ag 
Se     1 -0.5384402449776 -0.1036348402611  0.1076129192862 1.0
Se     1  0.0070880543073  0.4669797724303  0.1931980670487 1.0
Se     1  0.1297806817726  0.0218507702961 -0.3482842359355 1.0
Se     1 -0.3604896203323  0.3751384074357 -0.3699494745476 1.0
Ag     2 -0.1694058939647  0.0019476360890  0.3541505393941 1.0
Ag     2  0.3694118763148  0.2205174494405  0.2975281176381 1.0
Ag     2 -0.0355237440810 -0.2100688568449 -0.0239197928662 1.0
Ag     2 -0.4595940834543 -0.1852618528673 -0.2871155988048 1.0
Ag     2  0.2996265412660  0.4443151826435 -0.1105138678012 1.0
Ag     2  0.0141521617812 -0.3536762584473  0.5808966471364 1.0
Ag     2  0.4987224891272 -0.3845308357780  0.3589406992737 1.0
Ag     2 -0.2009800177592  0.1832480258633 -0.0420836198219 1.0
END
