TITL 4Ag2Se_TETRA_OPT-200811-102848-ee4f44 -0.0801 229.458905 -4.61183951E+004 0 0 12 (P1) n - 1
REM
REM Run started: Tue, 11 Aug 2020 12:51:16 +0100 in /lustre/scratch/uccabz1/launch_tmp/launcher_2020-08-11-09-28-46-176599
REM CASTEP 20.1 from code version af48c487+ pr-geom-scf-spinfix Tue Jun 2 15:39:59 2020 +0100
REM Functional PBE for solids (2008) Relativity Koelling-Harmon Dispersion off
REM Cut-off 300.0000 eV Grid scale 1.7500 Gmax 15.5288 1/A FBSC none
REM MP grid 3 3 3 Offset 0.000 0.000 0.000 No. kpts 14 Spacing 0.07
REM Total runtime: 9648.69 s
REM Overall efficiency: 95.1667 %
REM
REM 4Ag2Se_TETRA_OPT.cell (db6eaae92e6a5f18c152ebab86a92a61)
REM
REM compiler GCC version 4.9.2
REM options -cpp -iprefix /lustre/shared/ucl/apps/gcc/4.9.2/bin/../lib/gcc/x86_64-unknown-linux-gnu/4.9.2/ -mtune=corei7 -march=x86-64 -g -Og
REM COMMAND_LINE
REM seed -254423173 1474446048 -1481557457 1075291895 403565625 -3936528 885731819 -1459375977 238421758 108502371 1495869901 -998313975
REM
REM Se 3|2.1|7|7|9|40:41:32(qc=5)
REM Ag 3|2.2|7|7|9|40U:50:41:42(qc=5)
REM 
CELL 1.54180    4.97655    6.87206    6.71692   90.72339   89.43484   87.47279
LATT -1
SFAC Se Ag 
Se     1 -0.2993190411537 -0.5211629296154  0.1971870361711 1.0
Se     1 -0.2964195356191 -0.0390395525609 -0.1951313643833 1.0
Se     1  0.1376414897517 -0.5136333941028 -0.2355987350558 1.0
Se     1  0.1093666655182  0.1202119692266  0.3153130298324 1.0
Ag     2  0.2368684212262  0.5065904637745  0.3787843545224 1.0
Ag     2  0.2154148615876 -0.1391608866571 -0.4098397401178 1.0
Ag     2 -0.3558458168537  0.3489781552519 -0.1916590620619 1.0
Ag     2 -0.3941071388064  0.1262929702629  0.4358772549944 1.0
Ag     2  0.3758175036663 -0.2674869446344  0.0097029151232 1.0
Ag     2 -0.1194311132633 -0.1771338234482  0.1842061600946 1.0
Ag     2  0.1806090244080  0.1173416812705 -0.0731003093287 1.0
Ag     2 -0.2761112204619 -0.3390682087676 -0.4509946397905 1.0
END
