TITL 4Ag2Se_TETRA_OPT-200811-090527-172cc5 -0.0162 230.585498 -4.61184598E+004 0 0 12 (P21) n - 1
REM
REM Run started: Tue, 11 Aug 2020 10:27:39 +0100 in /lustre/scratch/uccabz1/launch_tmp/launcher_2020-08-11-08-05-24-872184
REM CASTEP 20.1 from code version af48c487+ pr-geom-scf-spinfix Tue Jun 2 15:39:59 2020 +0100
REM Functional PBE for solids (2008) Relativity Koelling-Harmon Dispersion off
REM Cut-off 300.0000 eV Grid scale 1.7500 Gmax 15.5288 1/A FBSC none
REM MP grid 3 3 3 Offset 0.000 0.000 0.000 No. kpts 14 Spacing 0.07
REM Total runtime: 4988.29 s
REM Overall efficiency: 92 %
REM
REM 4Ag2Se_TETRA_OPT.cell (db6eaae92e6a5f18c152ebab86a92a61)
REM
REM compiler GCC version 4.9.2
REM options -cpp -iprefix /lustre/shared/ucl/apps/gcc/4.9.2/bin/../lib/gcc/x86_64-unknown-linux-gnu/4.9.2/ -mtune=corei7 -march=x86-64 -g -Og
REM COMMAND_LINE
REM seed -686718350 2008458381 -484714571 214714823 92763833 1782239176 -1211676728 49825673 703244311 -139476085 -834622521 -988729
REM
REM Se 3|2.1|7|7|9|40:41:32(qc=5)
REM Ag 3|2.2|7|7|9|40U:50:41:42(qc=5)
REM 
CELL 1.54180    5.04964    6.76247    6.75272   89.97901   90.38578   90.20389
LATT -1
SFAC Se Ag 
Se     1 -0.1408310065694 -0.3190997840855 -0.0060045910614 1.0
Se     1 -0.1168032718768  0.2198583041756 -0.4660259194794 1.0
Se     1  0.4003403268636 -0.2791366259865 -0.4987794282014 1.0
Se     1  0.4174351038820  0.1815066460243  0.0403959732275 1.0
Ag     2 -0.1150952385274 -0.3735782105298 -0.4159489902667 1.0
Ag     2  0.3931284097848  0.1304398791350  0.4516430954503 1.0
Ag     2  0.3820836310846 -0.2169794328886  0.1049256903734 1.0
Ag     2 -0.1175308038852 -0.0411887890488  0.2563051192249 1.0
Ag     2 -0.1059236809868  0.2782355939851 -0.0681978672430 1.0
Ag     2  0.1380884018631 -0.0522410601648 -0.2275559791142 1.0
Ag     2  0.3878706817568  0.4664182221872 -0.2140524244537 1.0
Ag     2  0.1368698466106  0.4485552571970  0.2607090215437 1.0
END
