TITL 4Ag2SE-200803-160654-2ce6db -0.0059 243.649343 -4.61182188E+004 0 0 12 (R3m) n - 1
REM
REM Run started: Mon, 03 Aug 2020 16:31:25 +0100 in /lustre/scratch/uccabz1/launch_tmp/launcher_2020-08-03-15-06-52-922932
REM CASTEP 20.1 from code version af48c487+ pr-geom-scf-spinfix Tue Jun 2 15:39:59 2020 +0100
REM Functional PBE for solids (2008) Relativity Koelling-Harmon Dispersion off
REM Cut-off 300.0000 eV Grid scale 1.7500 Gmax 15.5288 1/A FBSC none
REM MP grid 3 3 3 Offset 0.000 0.000 0.000 No. kpts 6 Spacing 0.07
REM Total runtime: 1556.13 s
REM Overall efficiency: 65.7143 %
REM
REM 4Ag2SE.cell (6404a18c6b5dc90313b5c56acf317f23)
REM
REM compiler GCC version 4.9.2
REM options -cpp -iprefix /lustre/shared/ucl/apps/gcc/4.9.2/bin/../lib/gcc/x86_64-unknown-linux-gnu/4.9.2/ -mtune=corei7 -march=x86-64 -g -Og
REM COMMAND_LINE
REM seed -330315093 444382282 -1072120182 -798254056 2111992843 -901986109 1133318308 1877659462 600345540 -1747745358 1588705200 -393885009
REM
REM Se 3|2.1|7|7|9|40:41:32(qc=5)
REM Ag 3|2.2|7|7|9|40U:50:41:42(qc=5)
REM 
CELL 1.54180    6.24614    6.24614    6.24614   89.40344   89.40344   89.40344
LATT -1
SFAC Se Ag 
Se     1  0.4899137039152 -0.0212793393598  0.4897862564419 1.0
Se     1  0.4897862564419  0.4899137039152 -0.0212793393598 1.0
Se     1 -0.0212793393598  0.4897862564419  0.4899137039152 1.0
Se     1  0.0146960856967  0.0146960856967  0.0146960856967 1.0
Ag     2  0.2239642787474 -0.2555735683173 -0.2560458556018 1.0
Ag     2 -0.2560458556018  0.2239642787474 -0.2555735683173 1.0
Ag     2 -0.2555735683173 -0.2560458556018  0.2239642787474 1.0
Ag     2  0.2485135998109  0.2479889305568 -0.2680917150877 1.0
Ag     2 -0.2680917150877  0.2485135998109  0.2479889305568 1.0
Ag     2  0.2479889305568 -0.2680917150877  0.2485135998109 1.0
Ag     2 -0.2362712966928 -0.2362712966928 -0.2362712966928 1.0
Ag     2  0.2655908198906  0.2655908198906  0.2655908198906 1.0
END
