TITL 4Ag2Se_TETRA_OPT-200811-090526-063a35 0.0654 231.249318 -4.61182999E+004 0 0 12 (P1) n - 1
REM
REM Run started: Tue, 11 Aug 2020 10:58:56 +0100 in /lustre/scratch/uccabz1/launch_tmp/launcher_2020-08-11-08-05-24-872131
REM CASTEP 20.1 from code version af48c487+ pr-geom-scf-spinfix Tue Jun 2 15:39:59 2020 +0100
REM Functional PBE for solids (2008) Relativity Koelling-Harmon Dispersion off
REM Cut-off 300.0000 eV Grid scale 1.7500 Gmax 15.5288 1/A FBSC none
REM MP grid 3 3 3 Offset 0.000 0.000 0.000 No. kpts 14 Spacing 0.07
REM Total runtime: 7750.6 s
REM Overall efficiency: 92.5833 %
REM
REM 4Ag2Se_TETRA_OPT.cell (db6eaae92e6a5f18c152ebab86a92a61)
REM
REM compiler GCC version 4.9.2
REM options -cpp -iprefix /lustre/shared/ucl/apps/gcc/4.9.2/bin/../lib/gcc/x86_64-unknown-linux-gnu/4.9.2/ -mtune=corei7 -march=x86-64 -g -Og
REM COMMAND_LINE
REM seed -1989791274 -1761354767 -1492817250 -1798398400 -2113543321 -630112020 6134706 -115396366 -291249057 -2034283877 -430870571 -180890822
REM
REM Se 3|2.1|7|7|9|40:41:32(qc=5)
REM Ag 3|2.2|7|7|9|40U:50:41:42(qc=5)
REM 
CELL 1.54180    5.23146    6.24984    7.11569   87.00069   85.57297   86.44883
LATT -1
SFAC Se Ag 
Se     1  0.2048296426300 -0.4781414828134  0.5414501599896 1.0
Se     1 -0.3943299403585 -0.0194433437649  0.4852818528506 1.0
Se     1  0.2330613596734 -0.1365903348242 -0.0710050853199 1.0
Se     1 -0.2164597789612  0.4211355843428 -0.0437915694710 1.0
Ag     2 -0.2539903582203 -0.1434182626708 -0.1157370975672 1.0
Ag     2  0.4206101313390  0.2404651478274 -0.2151322326082 1.0
Ag     2  0.4676916121000 -0.3929222361656  0.2113727040257 1.0
Ag     2  0.0002215132570  0.3764913928577  0.2599409766295 1.0
Ag     2 -0.0113227009082  0.1475379113432 -0.3890557060318 1.0
Ag     2 -0.3004181481461 -0.4276915148978 -0.4248890425789 1.0
Ag     2  0.4707795840511  0.1367044198077  0.1601583378945 1.0
Ag     2 -0.0150409164564 -0.0934825810422  0.2458346021870 1.0
END
