TITL 4Ag2Se_TETRA_OPT-200811-114649-405d92 -0.0188 233.264151 -4.61183447E+004 0 0 12 (P21) n - 1
REM
REM Run started: Tue, 11 Aug 2020 12:17:12 +0100 in /lustre/scratch/uccabz1/launch_tmp/launcher_2020-08-11-10-46-48-021119
REM CASTEP 20.1 from code version af48c487+ pr-geom-scf-spinfix Tue Jun 2 15:39:59 2020 +0100
REM Functional PBE for solids (2008) Relativity Koelling-Harmon Dispersion off
REM Cut-off 300.0000 eV Grid scale 1.7500 Gmax 15.5288 1/A FBSC none
REM MP grid 4 2 3 Offset 0.000 0.000 0.000 No. kpts 6 Spacing 0.07
REM Total runtime: 1884.29 s
REM Overall efficiency: 75.625 %
REM
REM 4Ag2Se_TETRA_OPT.cell (db6eaae92e6a5f18c152ebab86a92a61)
REM
REM compiler GCC version 4.9.2
REM options -cpp -iprefix /lustre/shared/ucl/apps/gcc/4.9.2/bin/../lib/gcc/x86_64-unknown-linux-gnu/4.9.2/ -mtune=corei7 -march=x86-64 -g -Og
REM COMMAND_LINE
REM seed -397443546 -14225548 -268232532 1786571085 1383394642 647990326 -476155194 -2132486331 1063530054 -288025108 -1743946221 1685829568
REM
REM Se 3|2.1|7|7|9|40:41:32(qc=5)
REM Ag 3|2.2|7|7|9|40U:50:41:42(qc=5)
REM 
CELL 1.54180    4.60111    7.54696    6.74090   85.23353   90.00000   90.00000
LATT -1
SFAC Se Ag 
Se     1  0.1898922910613  0.1075536657865  0.2678895757344 1.0
Se     1 -0.3101077089387 -0.1075536657865 -0.2678895757344 1.0
Se     1  0.4845298780686 -0.4027996126901  0.1791691882884 1.0
Se     1 -0.0154701219314  0.4027996126901 -0.1791691882884 1.0
Ag     2  0.2057829399602 -0.2117125534251  0.4369848893793 1.0
Ag     2 -0.2942170600398  0.2117125534251 -0.4369848893793 1.0
Ag     2  0.2003867643085  0.4053585479666  0.4595370220563 1.0
Ag     2 -0.2996132356915 -0.4053585479666 -0.4595370220563 1.0
Ag     2 -0.3011486924240  0.2718364520972  0.1473632011403 1.0
Ag     2  0.1988513075760 -0.2718364520972 -0.1473632011403 1.0
Ag     2  0.3092885190252  0.1129140926182 -0.1267898712963 1.0
Ag     2 -0.1907114809748 -0.1129140926182  0.1267898712963 1.0
END
