TITL 4Ag2SE-200803-155101-ea7ad3 -0.0041 226.119666 -4.61177894E+004 0 0 12 (Cm) n - 1
REM
REM Run started: Mon, 03 Aug 2020 16:23:13 +0100 in /lustre/scratch/uccabz1/launch_tmp/launcher_2020-08-03-14-50-59-372183
REM CASTEP 20.1 from code version af48c487+ pr-geom-scf-spinfix Tue Jun 2 15:39:59 2020 +0100
REM Functional PBE for solids (2008) Relativity Koelling-Harmon Dispersion off
REM Cut-off 300.0000 eV Grid scale 1.7500 Gmax 15.5288 1/A FBSC none
REM MP grid 3 3 2 Offset 0.000 0.000 0.000 No. kpts 8 Spacing 0.07
REM Total runtime: 2084.96 s
REM Overall efficiency: 90.5 %
REM
REM 4Ag2SE.cell (6404a18c6b5dc90313b5c56acf317f23)
REM
REM compiler GCC version 4.9.2
REM options -cpp -iprefix /lustre/shared/ucl/apps/gcc/4.9.2/bin/../lib/gcc/x86_64-unknown-linux-gnu/4.9.2/ -mtune=corei7 -march=x86-64 -g -Og
REM COMMAND_LINE
REM seed -277009516 1877872990 -1952294894 495343510 595675403 -1125368217 -2026091987 299977271 323897398 -703312019 851848141 420887815
REM
REM Se 3|2.1|7|7|9|40:41:32(qc=5)
REM Ag 3|2.2|7|7|9|40U:50:41:42(qc=5)
REM 
CELL 1.54180    5.08613    5.87682    8.13562   68.82740   88.44491   85.69089
LATT -1
SFAC Se Ag 
Se     1  0.2597303113957  0.1823140542224  0.2270740860449 1.0
Se     1  0.2597303113957  0.4093881402673 -0.2270740860449 1.0
Se     1 -0.2744521862540 -0.2059393745861 -0.2109294028099 1.0
Se     1 -0.2744521862540 -0.4168687773961  0.2109294028099 1.0
Ag     2  0.2169127968741 -0.2619360849246  0.1851670559536 1.0
Ag     2  0.2169127968741 -0.0767690289710 -0.1851670559536 1.0
Ag     2  0.0611386878995  0.3575759029480  0.4915990585049 1.0
Ag     2  0.0611386878995 -0.1508250385471 -0.4915990585049 1.0
Ag     2 -0.4272849486555  0.1402978347376  0.4963667561172 1.0
Ag     2 -0.4272849486555 -0.3633354091452 -0.4963667561172 1.0
Ag     2 -0.2342059612597  0.0587787932814  0.1848794948322 1.0
Ag     2 -0.2342059612597  0.2436582881136 -0.1848794948322 1.0
END
