TITL 4Ag2SE-200803-155103-c95bf0 -0.0339 229.669643 -4.61184427E+004 0 0 12 (Cmce) n - 1
REM
REM Run started: Mon, 03 Aug 2020 16:00:06 +0100 in /lustre/scratch/uccabz1/launch_tmp/launcher_2020-08-03-14-51-01-295114
REM CASTEP 20.1 from code version af48c487+ pr-geom-scf-spinfix Tue Jun 2 15:39:59 2020 +0100
REM Functional PBE for solids (2008) Relativity Koelling-Harmon Dispersion off
REM Cut-off 300.0000 eV Grid scale 1.7500 Gmax 15.5288 1/A FBSC none
REM MP grid 4 4 2 Offset 0.000 0.000 0.000 No. kpts 6 Spacing 0.07
REM Total runtime: 626.1 s
REM Overall efficiency: 67 %
REM
REM 4Ag2SE.cell (6404a18c6b5dc90313b5c56acf317f23)
REM
REM compiler GCC version 4.9.2
REM options -cpp -iprefix /lustre/shared/ucl/apps/gcc/4.9.2/bin/../lib/gcc/x86_64-unknown-linux-gnu/4.9.2/ -mtune=corei7 -march=x86-64 -g -Og
REM COMMAND_LINE
REM seed 1403509845 -1340061776 1541840375 584290477 1115589250 -851878908 306194557 854352651 1590351087 743298268 1353241157 1309051171
REM
REM Se 3|2.1|7|7|9|40:41:32(qc=5)
REM Ag 3|2.2|7|7|9|40U:50:41:42(qc=5)
REM 
CELL 1.54180    4.55236    4.55236   12.38615   90.00000   90.00000  116.52558
LATT -1
SFAC Se Ag 
Se     1  0.0321342654888  0.4678657345112  0.3669613666118 1.0
Se     1 -0.0321342654888 -0.4678657345112 -0.1330386333882 1.0
Se     1  0.4678657345112  0.0321342654888  0.1330386333882 1.0
Se     1 -0.4678657345112 -0.0321342654888 -0.3669613666118 1.0
Ag     2  0.2869850118994  0.2130149881006 -0.0595879737847 1.0
Ag     2 -0.2869850118994 -0.2130149881006  0.4404120262153 1.0
Ag     2  0.2130149881006  0.2869850118994 -0.4404120262153 1.0
Ag     2 -0.2130149881006 -0.2869850118994  0.0595879737847 1.0
Ag     2 -0.3763890661039 -0.1236109338961 -0.1540229481150 1.0
Ag     2  0.3763890661039  0.1236109338961  0.3459770518850 1.0
Ag     2 -0.1236109338961 -0.3763890661039 -0.3459770518850 1.0
Ag     2  0.1236109338961  0.3763890661039  0.1540229481150 1.0
END
