TITL 4Ag2Se_TETRA_OPT-200811-112137-6e5651 -0.0542 219.076523 -4.61184308E+004 0 0 12 (P1) n - 1
REM
REM Run started: Tue, 11 Aug 2020 12:32:28 +0100 in /lustre/scratch/uccabz1/launch_tmp/launcher_2020-08-11-10-21-35-764975
REM CASTEP 20.1 from code version af48c487+ pr-geom-scf-spinfix Tue Jun 2 15:39:59 2020 +0100
REM Functional PBE for solids (2008) Relativity Koelling-Harmon Dispersion off
REM Cut-off 300.0000 eV Grid scale 1.7500 Gmax 15.5288 1/A FBSC none
REM MP grid 3 3 3 Offset 0.000 0.000 0.000 No. kpts 14 Spacing 0.07
REM Total runtime: 4428.67 s
REM Overall efficiency: 94.5 %
REM
REM 4Ag2Se_TETRA_OPT.cell (db6eaae92e6a5f18c152ebab86a92a61)
REM
REM compiler GCC version 4.9.2
REM options -cpp -iprefix /lustre/shared/ucl/apps/gcc/4.9.2/bin/../lib/gcc/x86_64-unknown-linux-gnu/4.9.2/ -mtune=corei7 -march=x86-64 -g -Og
REM COMMAND_LINE
REM seed 407607740 464963363 -613384882 -1827740432 -1554678458 -196957873 -2094935306 1246801840 1129627923 -1013913959 -461559488 -945951544
REM
REM Se 3|2.1|7|7|9|40:41:32(qc=5)
REM Ag 3|2.2|7|7|9|40U:50:41:42(qc=5)
REM 
CELL 1.54180    5.19386    6.27353    6.75909   95.52249   90.55371   91.89328
LATT -1
SFAC Se Ag 
Se     1 -0.1682818669537  0.2940557068289 -0.1668022551621 1.0
Se     1 -0.1628442519184 -0.1350628654629  0.4522137740805 1.0
Se     1  0.4492880695751 -0.1162440758545 -0.0267162983111 1.0
Se     1  0.4602227183663  0.2971294415448  0.3485761450535 1.0
Ag     2 -0.4795531953683 -0.4113275698440 -0.3399029813082 1.0
Ag     2  0.3071873520028  0.3726002098015 -0.0214222955758 1.0
Ag     2  0.0328699528506 -0.3033967110647 -0.2250046733203 1.0
Ag     2  0.3170644349937  0.0509546618583 -0.3646094075230 1.0
Ag     2 -0.0234556904113  0.0260203484147  0.1061617846522 1.0
Ag     2  0.2833782548442 -0.2943248953489  0.3102939005928 1.0
Ag     2 -0.2069795766942 -0.4199886387336  0.1352839261173 1.0
Ag     2 -0.0246639012867  0.3433563878604 -0.5493985192960 1.0
END
