TITL 4Ag2Se_TETRA_OPT-200811-113550-e9cccf -0.0264 235.999504 -4.61183014E+004 0 0 12 (P1) n - 1
REM
REM Run started: Tue, 11 Aug 2020 12:36:39 +0100 in /lustre/scratch/uccabz1/launch_tmp/launcher_2020-08-11-10-35-48-880445
REM CASTEP 20.1 from code version af48c487+ pr-geom-scf-spinfix Tue Jun 2 15:39:59 2020 +0100
REM Functional PBE for solids (2008) Relativity Koelling-Harmon Dispersion off
REM Cut-off 300.0000 eV Grid scale 1.7500 Gmax 15.5288 1/A FBSC none
REM MP grid 3 3 3 Offset 0.000 0.000 0.000 No. kpts 14 Spacing 0.07
REM Total runtime: 3887.91 s
REM Overall efficiency: 93 %
REM
REM 4Ag2Se_TETRA_OPT.cell (db6eaae92e6a5f18c152ebab86a92a61)
REM
REM compiler GCC version 4.9.2
REM options -cpp -iprefix /lustre/shared/ucl/apps/gcc/4.9.2/bin/../lib/gcc/x86_64-unknown-linux-gnu/4.9.2/ -mtune=corei7 -march=x86-64 -g -Og
REM COMMAND_LINE
REM seed -131527641 -1773730778 -1744834091 776262373 -1568194890 1816622489 -57265061 -82889717 -1597541649 -210226375 -392180729 702797553
REM
REM Se 3|2.1|7|7|9|40:41:32(qc=5)
REM Ag 3|2.2|7|7|9|40U:50:41:42(qc=5)
REM 
CELL 1.54180    4.84336    6.97426    7.02011   94.16805   89.87372   86.27975
LATT -1
SFAC Se Ag 
Se     1  0.3432953178627  0.5446095164407  0.1767345045379 1.0
Se     1  0.0668429597381 -0.5388987803507 -0.3215014620536 1.0
Se     1 -0.3078775849248 -0.0085236611232  0.0421251547627 1.0
Se     1  0.3993265096517 -0.0492147856328 -0.4338462990813 1.0
Ag     2  0.1854574458721  0.1104526279173 -0.0935997771732 1.0
Ag     2 -0.3152453296213 -0.3860136183219 -0.0847705583898 1.0
Ag     2 -0.3250727558248  0.2367628744135 -0.2712954537501 1.0
Ag     2 -0.1155536594806  0.3451743418712  0.1706502263344 1.0
Ag     2 -0.0806794474406 -0.1551917051967 -0.3412435734632 1.0
Ag     2  0.3851465432244  0.2203120194310  0.3367779439167 1.0
Ag     2 -0.3765539448157 -0.4441734492500  0.4884882559334 1.0
Ag     2  0.0872080457590 -0.1078729801983  0.2573044384262 1.0
END
