TITL 4Ag2Se_TETRA_OPT-200811-105004-93f605 -0.0606 226.997644 -4.61184191E+004 0 0 12 (P-1) n - 1
REM
REM Run started: Tue, 11 Aug 2020 12:58:02 +0100 in /lustre/scratch/uccabz1/launch_tmp/launcher_2020-08-11-09-50-02-727739
REM CASTEP 20.1 from code version af48c487+ pr-geom-scf-spinfix Tue Jun 2 15:39:59 2020 +0100
REM Functional PBE for solids (2008) Relativity Koelling-Harmon Dispersion off
REM Cut-off 300.0000 eV Grid scale 1.7500 Gmax 15.5288 1/A FBSC none
REM MP grid 3 3 3 Offset 0.000 0.000 0.000 No. kpts 14 Spacing 0.07
REM Total runtime: 8736.99 s
REM Overall efficiency: 95 %
REM
REM 4Ag2Se_TETRA_OPT.cell (db6eaae92e6a5f18c152ebab86a92a61)
REM
REM compiler GCC version 4.9.2
REM options -cpp -iprefix /lustre/shared/ucl/apps/gcc/4.9.2/bin/../lib/gcc/x86_64-unknown-linux-gnu/4.9.2/ -mtune=corei7 -march=x86-64 -g -Og
REM COMMAND_LINE
REM seed -1040165315 1585895670 -85315663 940035290 1747812342 883197942 -1550601918 209052389 1840957850 -1424933083 629265267 538615895
REM
REM Se 3|2.1|7|7|9|40:41:32(qc=5)
REM Ag 3|2.2|7|7|9|40U:50:41:42(qc=5)
REM 
CELL 1.54180    5.32861    7.02971    6.08903   93.80456   90.93444   93.93329
LATT -1
SFAC Se Ag 
Se     1 -0.2537174138747 -0.0217710686430 -0.2087438025596 1.0
Se     1  0.2537174138747  0.0217710686430  0.2087438025596 1.0
Se     1 -0.3438270778697  0.4537474756428  0.2257452761361 1.0
Se     1  0.3438270778697 -0.4537474756428 -0.2257452761361 1.0
Ag     2  0.0912365436335  0.3336038716240  0.4155083142241 1.0
Ag     2 -0.0912365436335 -0.3336038716240 -0.4155083142241 1.0
Ag     2 -0.2457909205269  0.0134098167069  0.2399580767011 1.0
Ag     2  0.2457909205269 -0.0134098167069 -0.2399580767011 1.0
Ag     2  0.0137577386270 -0.3145766942504  0.0947358707407 1.0
Ag     2 -0.0137577386270  0.3145766942504 -0.0947358707407 1.0
Ag     2  0.4141205172881 -0.2606613336681  0.4132046098020 1.0
Ag     2 -0.4141205172881  0.2606613336681 -0.4132046098020 1.0
END
