TITL 4Ag2Se_TETRA-200803-165109-d3cafe -0.0278 224.565717 -4.61181196E+004 0 0 12 (C2/c) n - 1
REM
REM Run started: Mon, 03 Aug 2020 17:34:13 +0100 in /lustre/scratch/uccabz1/launch_tmp/launcher_2020-08-03-15-51-08-210720
REM CASTEP 20.1 from code version af48c487+ pr-geom-scf-spinfix Tue Jun 2 15:39:59 2020 +0100
REM Functional PBE for solids (2008) Relativity Koelling-Harmon Dispersion off
REM Cut-off 300.0000 eV Grid scale 1.7500 Gmax 15.5288 1/A FBSC none
REM MP grid 4 4 2 Offset 0.000 0.000 0.000 No. kpts 10 Spacing 0.07
REM Total runtime: 2862.69 s
REM Overall efficiency: 90.6667 %
REM
REM 4Ag2Se_TETRA.cell (4020362940262d3df87d4014b41eb05e)
REM
REM compiler GCC version 4.9.2
REM options -cpp -iprefix /lustre/shared/ucl/apps/gcc/4.9.2/bin/../lib/gcc/x86_64-unknown-linux-gnu/4.9.2/ -mtune=corei7 -march=x86-64 -g -Og
REM COMMAND_LINE
REM seed -489574812 -969353481 -1380504470 547908281 -659913453 1791385536 -652396954 353818108 -2016675135 -1381760486 -942451495 556577487
REM
REM Se 3|2.1|7|7|9|40:41:32(qc=5)
REM Ag 3|2.2|7|7|9|40U:50:41:42(qc=5)
REM 
CELL 1.54180    4.42625    4.42625   11.65486   93.88751   93.88751   98.57049
LATT -1
SFAC Se Ag 
Se     1 -0.3407526393797  0.4975285366697  0.3081945020109 1.0
Se     1  0.4975285366697 -0.3407526393797 -0.1918054979891 1.0
Se     1 -0.0934105606203  0.0683082633303 -0.4568991020109 1.0
Se     1  0.0683082633303 -0.0934105606203  0.0431008979891 1.0
Ag     2 -0.3937241501696  0.4312502069312  0.0090660586669 1.0
Ag     2  0.4312502069312 -0.3937241501696 -0.4909339413331 1.0
Ag     2  0.4250267654768  0.1408100345232 -0.3243523000000 1.0
Ag     2  0.1408100345232  0.4250267654768  0.1756477000000 1.0
Ag     2  0.1345865930688 -0.0404390498304  0.3422293413331 1.0
Ag     2 -0.0404390498304  0.1345865930688 -0.1577706586669 1.0
Ag     2 -0.4044090999938 -0.0297541000062  0.1756477000000 1.0
Ag     2 -0.0297541000062 -0.4044090999938 -0.3243523000000 1.0
END
