TITL 4Ag2SE-200803-160703-107105 0.0373 217.009136 -4.61180921E+004 0 0 12 (P21212) n - 1
REM
REM Run started: Mon, 03 Aug 2020 16:23:14 +0100 in /lustre/scratch/uccabz1/launch_tmp/launcher_2020-08-03-15-07-01-775153
REM CASTEP 20.1 from code version af48c487+ pr-geom-scf-spinfix Tue Jun 2 15:39:59 2020 +0100
REM Functional PBE for solids (2008) Relativity Koelling-Harmon Dispersion off
REM Cut-off 300.0000 eV Grid scale 1.7500 Gmax 15.5288 1/A FBSC none
REM MP grid 3 3 2 Offset 0.000 0.000 0.000 No. kpts 4 Spacing 0.07
REM Total runtime: 1025.54 s
REM Overall efficiency: 69.4286 %
REM
REM 4Ag2SE.cell (6404a18c6b5dc90313b5c56acf317f23)
REM
REM compiler GCC version 4.9.2
REM options -cpp -iprefix /lustre/shared/ucl/apps/gcc/4.9.2/bin/../lib/gcc/x86_64-unknown-linux-gnu/4.9.2/ -mtune=corei7 -march=x86-64 -g -Og
REM COMMAND_LINE
REM seed -343008555 1195083986 -1329581595 2070535455 -1560523372 -421343396 617440251 899589286 -1754352246 -2092290420 -2113681998 1952571197
REM
REM Se 3|2.1|7|7|9|40:41:32(qc=5)
REM Ag 3|2.2|7|7|9|40U:50:41:42(qc=5)
REM 
CELL 1.54180    4.87962    5.57162    7.98199   90.00000   90.00000   90.00000
LATT -1
SFAC Se Ag 
Se     1  0.2569192749200 -0.3515533595767  0.3122448207940 1.0
Se     1  0.2569192749200  0.3515533595767 -0.3122448207940 1.0
Se     1 -0.2569192749200  0.1484466404233  0.1877551792060 1.0
Se     1 -0.2569192749200 -0.1484466404233 -0.1877551792060 1.0
Ag     2 -0.2466911759310 -0.2488718741037 -0.5186807355314 1.0
Ag     2 -0.2466911759310  0.2488718741037  0.5186807355314 1.0
Ag     2  0.2466911759310  0.2511281258963  0.0186807355314 1.0
Ag     2  0.2466911759310 -0.2511281258963 -0.0186807355314 1.0
Ag     2 -0.2491974596396  0.3564236586715 -0.1425167490432 1.0
Ag     2 -0.2491974596396 -0.3564236586715  0.1425167490432 1.0
Ag     2  0.2491974596396 -0.1435763413285 -0.3574832509568 1.0
Ag     2  0.2491974596396  0.1435763413285  0.3574832509568 1.0
END
