TITL 4Ag2Se_TETRA_OPT-200811-104059-cf1bf8 -0.0099 231.697121 -4.61181683E+004 0 0 12 (Pc) n - 1
REM
REM Run started: Tue, 11 Aug 2020 11:33:46 +0100 in /lustre/scratch/uccabz1/launch_tmp/launcher_2020-08-11-09-40-58-315918
REM CASTEP 20.1 from code version af48c487+ pr-geom-scf-spinfix Tue Jun 2 15:39:59 2020 +0100
REM Functional PBE for solids (2008) Relativity Koelling-Harmon Dispersion off
REM Cut-off 300.0000 eV Grid scale 1.7500 Gmax 15.5288 1/A FBSC none
REM MP grid 4 3 2 Offset 0.000 0.000 0.000 No. kpts 6 Spacing 0.07
REM Total runtime: 3182.28 s
REM Overall efficiency: 72.75 %
REM
REM 4Ag2Se_TETRA_OPT.cell (db6eaae92e6a5f18c152ebab86a92a61)
REM
REM compiler GCC version 4.9.2
REM options -cpp -iprefix /lustre/shared/ucl/apps/gcc/4.9.2/bin/../lib/gcc/x86_64-unknown-linux-gnu/4.9.2/ -mtune=corei7 -march=x86-64 -g -Og
REM COMMAND_LINE
REM seed -322690287 659740260 -1685369534 -958876821 1883244061 -244012329 1727213963 1343307169 915938917 943186866 -1122858584 -400094816
REM
REM Se 3|2.1|7|7|9|40:41:32(qc=5)
REM Ag 3|2.2|7|7|9|40U:50:41:42(qc=5)
REM 
CELL 1.54180    4.37555    7.15776    7.45444   90.00000   90.00000   82.94216
LATT -1
SFAC Se Ag 
Se     1 -0.2118009751120  0.1285401812163 -0.2996124154223 1.0
Se     1 -0.2118009751120 -0.3714598187837  0.2996124154223 1.0
Se     1  0.2838088159419 -0.4035439482122 -0.1501169128361 1.0
Se     1  0.2838088159419  0.0964560517878  0.1501169128361 1.0
Ag     2 -0.1594682851604 -0.1339017046167  0.0134756315003 1.0
Ag     2 -0.1594682851604 -0.6339017046167 -0.0134756315003 1.0
Ag     2  0.3328128816294  0.4492089253238  0.2048071725286 1.0
Ag     2  0.3328128816294 -0.0507910746762 -0.2048071725286 1.0
Ag     2  0.2827832285352 -0.2871866580908  0.4997382796845 1.0
Ag     2  0.2827832285352  0.2128133419092 -0.4997382796845 1.0
Ag     2 -0.1799996658341  0.4990209043797 -0.3649612152529 1.0
Ag     2 -0.1799996658341 -0.0009790956203  0.3649612152529 1.0
END
