TITL 4Ag2SE-200803-155913-d31d5b 0.0024 216.488727 -4.61180745E+004 0 0 12 (P21212) n - 1
REM
REM Run started: Mon, 03 Aug 2020 16:39:06 +0100 in /lustre/scratch/uccabz1/launch_tmp/launcher_2020-08-03-14-59-11-873043
REM CASTEP 20.1 from code version af48c487+ pr-geom-scf-spinfix Tue Jun 2 15:39:59 2020 +0100
REM Functional PBE for solids (2008) Relativity Koelling-Harmon Dispersion off
REM Cut-off 300.0000 eV Grid scale 1.7500 Gmax 15.5288 1/A FBSC none
REM MP grid 3 3 2 Offset 0.000 0.000 0.000 No. kpts 6 Spacing 0.07
REM Total runtime: 2460.35 s
REM Overall efficiency: 69.2 %
REM
REM 4Ag2SE.cell (6404a18c6b5dc90313b5c56acf317f23)
REM
REM compiler GCC version 4.9.2
REM options -cpp -iprefix /lustre/shared/ucl/apps/gcc/4.9.2/bin/../lib/gcc/x86_64-unknown-linux-gnu/4.9.2/ -mtune=corei7 -march=x86-64 -g -Og
REM COMMAND_LINE
REM seed 2038173904 943795911 -1587954222 -196004453 832796274 -618187851 13577626 431458455 253170056 493825138 -1693792132 -752297747
REM
REM Se 3|2.1|7|7|9|40:41:32(qc=5)
REM Ag 3|2.2|7|7|9|40U:50:41:42(qc=5)
REM 
CELL 1.54180    4.86997    5.56888    7.98266   90.30377   90.00000   90.00000
LATT -1
SFAC Se Ag 
Se     1 -0.3372341903535 -0.3583421068345 -0.3124916321290 1.0
Se     1 -0.3372341903535  0.3583421068345  0.3124916321290 1.0
Se     1  0.1795519357521 -0.1400073993351  0.1875783141571 1.0
Se     1  0.1795519357521  0.1400073993351 -0.1875783141571 1.0
Ag     2 -0.3213708000362  0.1367895648162 -0.3553039653599 1.0
Ag     2 -0.3213708000362 -0.1367895648162  0.3553039653599 1.0
Ag     2  0.1745000498141 -0.2481768500248 -0.4829718532367 1.0
Ag     2  0.1745000498141  0.2481768500248  0.4829718532367 1.0
Ag     2 -0.3291847345657 -0.2511830693105  0.0176058905492 1.0
Ag     2 -0.3291847345657  0.2511830693105 -0.0176058905492 1.0
Ag     2  0.1663700393892  0.3662073518912  0.1451157490817 1.0
Ag     2  0.1663700393892 -0.3662073518912 -0.1451157490817 1.0
END
