TITL 4Ag2Se_TETRA_OPT-200811-100145-525309 -0.1880 231.306948 -4.61185117E+004 0 0 12 (P1) n - 1
REM
REM Run started: Tue, 11 Aug 2020 11:57:11 +0100 in /lustre/scratch/uccabz1/launch_tmp/launcher_2020-08-11-09-01-43-544400
REM CASTEP 20.1 from code version af48c487+ pr-geom-scf-spinfix Tue Jun 2 15:39:59 2020 +0100
REM Functional PBE for solids (2008) Relativity Koelling-Harmon Dispersion off
REM Cut-off 300.0000 eV Grid scale 1.7500 Gmax 15.5288 1/A FBSC none
REM MP grid 4 2 2 Offset 0.000 0.000 0.000 No. kpts 8 Spacing 0.07
REM Total runtime: 7644.94 s
REM Overall efficiency: 84.0833 %
REM
REM 4Ag2Se_TETRA_OPT.cell (db6eaae92e6a5f18c152ebab86a92a61)
REM
REM compiler GCC version 4.9.2
REM options -cpp -iprefix /lustre/shared/ucl/apps/gcc/4.9.2/bin/../lib/gcc/x86_64-unknown-linux-gnu/4.9.2/ -mtune=corei7 -march=x86-64 -g -Og
REM COMMAND_LINE
REM seed 1878960815 514575674 -1413046319 611871238 -464929507 473717099 -1776205750 -1900259006 879340816 1822462841 354595568 -930774767
REM
REM Se 3|2.1|7|7|9|40:41:32(qc=5)
REM Ag 3|2.2|7|7|9|40U:50:41:42(qc=5)
REM 
CELL 1.54180    4.40641    7.25273    7.28254   96.34321   89.61853   90.29978
LATT -1
SFAC Se Ag 
Se     1  0.4512327180806  0.2896039489241  0.1555067313503 1.0
Se     1  0.1438347900137  0.3997459182296 -0.3672501505952 1.0
Se     1 -0.0363292415848 -0.1468196199906  0.1709375927694 1.0
Se     1 -0.3765991474750 -0.0158844378235 -0.2779609108142 1.0
Ag     2  0.1011428093646  0.1024965449759 -0.0823017619240 1.0
Ag     2 -0.3547556488392 -0.3710120371579 -0.4071306155790 1.0
Ag     2  0.1720580623517 -0.2936865662392 -0.1476208979294 1.0
Ag     2 -0.2640681891948  0.4197525680360 -0.1063162180648 1.0
Ag     2  0.4694136358825 -0.3265326678958  0.2019669721517 1.0
Ag     2 -0.0314469436575  0.4638971892911  0.2913986137767 1.0
Ag     2  0.1473322874878 -0.1196942583806 -0.4889398830864 1.0
Ag     2 -0.3379800324296  0.1464477180309  0.4306595279448 1.0
END
