TITL 4Ag2Se_TETRA_OPT-200811-103147-8a558d 0.0008 224.075103 -4.61185225E+004 0 0 12 (P21212) n - 1
REM
REM Run started: Tue, 11 Aug 2020 11:04:17 +0100 in /lustre/scratch/uccabz1/launch_tmp/launcher_2020-08-11-09-31-45-447277
REM CASTEP 20.1 from code version af48c487+ pr-geom-scf-spinfix Tue Jun 2 15:39:59 2020 +0100
REM Functional PBE for solids (2008) Relativity Koelling-Harmon Dispersion off
REM Cut-off 300.0000 eV Grid scale 1.7500 Gmax 15.5288 1/A FBSC none
REM MP grid 4 3 3 Offset 0.000 0.000 0.000 No. kpts 12 Spacing 0.07
REM Total runtime: 2109.01 s
REM Overall efficiency: 80.3333 %
REM
REM 4Ag2Se_TETRA_OPT.cell (db6eaae92e6a5f18c152ebab86a92a61)
REM
REM compiler GCC version 4.9.2
REM options -cpp -iprefix /lustre/shared/ucl/apps/gcc/4.9.2/bin/../lib/gcc/x86_64-unknown-linux-gnu/4.9.2/ -mtune=corei7 -march=x86-64 -g -Og
REM COMMAND_LINE
REM seed -400048039 -1907590881 1009788772 -32659855 2093153245 1048202537 282588325 -1760988535 -2017589013 -947522785 -1969606253 871568958
REM
REM Se 3|2.1|7|7|9|40:41:32(qc=5)
REM Ag 3|2.2|7|7|9|40U:50:41:42(qc=5)
REM 
CELL 1.54180    4.69854    6.84225    6.96998   90.00000   89.98769   90.00000
LATT -1
SFAC Se Ag 
Se     1  0.2399108953014 -0.1414804599622  0.2987515603758 1.0
Se     1 -0.2399108953014 -0.1414804599622 -0.2987515603758 1.0
Se     1  0.2595194061110  0.2766511440261 -0.2011908028948 1.0
Se     1 -0.2595194061110  0.2766511440261  0.2011908028948 1.0
Ag     2 -0.2529318424567 -0.1080483228331  0.1014438296259 1.0
Ag     2  0.2529318424567 -0.1080483228331 -0.1014438296259 1.0
Ag     2 -0.2488561588988 -0.3907272321311  0.3884465423135 1.0
Ag     2  0.2488561588988 -0.3907272321311 -0.3884465423135 1.0
Ag     2  0.2514002346759 -0.4732038923459  0.1111105039255 1.0
Ag     2 -0.2514002346759 -0.4732038923459 -0.1111105039255 1.0
Ag     2 -0.2472448076133  0.2441528632462 -0.3985732963197 1.0
Ag     2  0.2472448076133  0.2441528632462  0.3985732963197 1.0
END
