TITL 4Ag2Se_TETRA_OPT-200811-112315-4c44fa 0.0093 252.828440 -4.61172489E+004 0 0 12 (P42/mcm) n - 1
REM
REM Run started: Tue, 11 Aug 2020 11:28:44 +0100 in /lustre/scratch/uccabz1/launch_tmp/launcher_2020-08-11-10-23-13-431965
REM CASTEP 20.1 from code version af48c487+ pr-geom-scf-spinfix Tue Jun 2 15:39:59 2020 +0100
REM Functional PBE for solids (2008) Relativity Koelling-Harmon Dispersion off
REM Cut-off 300.0000 eV Grid scale 1.7500 Gmax 15.5288 1/A FBSC none
REM MP grid 4 2 2 Offset 0.000 0.000 0.000 No. kpts 2 Spacing 0.07
REM Total runtime: 458.18 s
REM Overall efficiency: 63.6 %
REM
REM 4Ag2Se_TETRA_OPT.cell (db6eaae92e6a5f18c152ebab86a92a61)
REM
REM compiler GCC version 4.9.2
REM options -cpp -iprefix /lustre/shared/ucl/apps/gcc/4.9.2/bin/../lib/gcc/x86_64-unknown-linux-gnu/4.9.2/ -mtune=corei7 -march=x86-64 -g -Og
REM COMMAND_LINE
REM seed -405983552 1151741248 -1789375793 1848390691 -222094298 1539279065 -1723268697 794042247 868894031 729541534 -20913421 270941879
REM
REM Se 3|2.1|7|7|9|40:41:32(qc=5)
REM Ag 3|2.2|7|7|9|40U:50:41:42(qc=5)
REM 
CELL 1.54180    4.53749    7.46457    7.46457   90.00000   90.00000   90.00000
LATT -1
SFAC Se Ag 
Se     1  0.2500000000000 -0.2155343432621  0.2155344432621 1.0
Se     1 -0.2500000000000 -0.2155343432621 -0.2155344432621 1.0
Se     1 -0.2500000000000  0.2155345432621  0.2155344432621 1.0
Se     1  0.2500000000000  0.2155345432621 -0.2155344432621 1.0
Ag     2 -0.2500000000000 -0.3990077828250  0.1488897778317 1.0
Ag     2  0.2500000000000 -0.3990077828250 -0.1488897778317 1.0
Ag     2  0.2500000000000  0.3990079828250  0.1488897778317 1.0
Ag     2 -0.2500000000000  0.3990079828250 -0.1488897778317 1.0
Ag     2 -0.2500000000000 -0.1488896778317  0.3990078828250 1.0
Ag     2  0.2500000000000 -0.1488896778317 -0.3990078828250 1.0
Ag     2  0.2500000000000  0.1488898778317  0.3990078828250 1.0
Ag     2 -0.2500000000000  0.1488898778317 -0.3990078828250 1.0
END
