TITL 4Ag2Se_TETRA_OPT-200811-100750-8d9c7a 0.0076 212.766027 -4.61176869E+004 0 0 12 (Cmme) n - 1
REM
REM Run started: Tue, 11 Aug 2020 10:53:42 +0100 in /lustre/scratch/uccabz1/launch_tmp/launcher_2020-08-11-09-07-47-874238
REM CASTEP 20.1 from code version af48c487+ pr-geom-scf-spinfix Tue Jun 2 15:39:59 2020 +0100
REM Functional PBE for solids (2008) Relativity Koelling-Harmon Dispersion off
REM Cut-off 300.0000 eV Grid scale 1.7500 Gmax 15.5288 1/A FBSC none
REM MP grid 3 3 2 Offset 0.000 0.000 0.000 No. kpts 4 Spacing 0.07
REM Total runtime: 2829.3 s
REM Overall efficiency: 73.6667 %
REM
REM 4Ag2Se_TETRA_OPT.cell (db6eaae92e6a5f18c152ebab86a92a61)
REM
REM compiler GCC version 4.9.2
REM options -cpp -iprefix /lustre/shared/ucl/apps/gcc/4.9.2/bin/../lib/gcc/x86_64-unknown-linux-gnu/4.9.2/ -mtune=corei7 -march=x86-64 -g -Og
REM COMMAND_LINE
REM seed 1026828849 1131809247 -2098392558 -847327894 -1095839033 -566596921 388277241 -1882001301 1549846125 598328608 -1575477298 -536110487
REM
REM Se 3|2.1|7|7|9|40:41:32(qc=5)
REM Ag 3|2.2|7|7|9|40U:50:41:42(qc=5)
REM 
CELL 1.54180    5.05571    5.06649    8.30641   90.00000   90.00000   90.00000
LATT -1
SFAC Se Ag 
Se     1  0.1086640406569  0.2425306768545 -0.2502916992944 1.0
Se     1  0.1086640406569 -0.2425306768545  0.2502916992944 1.0
Se     1 -0.3913359593431  0.2425306768545  0.2502916992944 1.0
Se     1 -0.3913359593431 -0.2425306768545 -0.2502916992944 1.0
Ag     2 -0.3887348450118  0.2517185631913 -0.0803022957656 1.0
Ag     2 -0.3887348450118 -0.2517185631913  0.0803022957656 1.0
Ag     2  0.1112651549882  0.2517185631913  0.0803022957656 1.0
Ag     2  0.1112651549882 -0.2517185631913 -0.0803022957656 1.0
Ag     2 -0.3988144956451  0.2524009236180 -0.4174980267714 1.0
Ag     2 -0.3988144956451 -0.2524009236180  0.4174980267714 1.0
Ag     2  0.1011855043549  0.2524009236180  0.4174980267714 1.0
Ag     2  0.1011855043549 -0.2524009236180 -0.4174980267714 1.0
END
