TITL 4Ag2Se_TETRA_OPT-200811-091445-ddc32e -0.0175 222.617723 -4.61184435E+004 0 0 12 (P1) n - 1
REM
REM Run started: Tue, 11 Aug 2020 10:49:28 +0100 in /lustre/scratch/uccabz1/launch_tmp/launcher_2020-08-11-08-14-43-640471
REM CASTEP 20.1 from code version af48c487+ pr-geom-scf-spinfix Tue Jun 2 15:39:59 2020 +0100
REM Functional PBE for solids (2008) Relativity Koelling-Harmon Dispersion off
REM Cut-off 300.0000 eV Grid scale 1.7500 Gmax 15.5288 1/A FBSC none
REM MP grid 4 3 2 Offset 0.000 0.000 0.000 No. kpts 12 Spacing 0.07
REM Total runtime: 5827.31 s
REM Overall efficiency: 82.5455 %
REM
REM 4Ag2Se_TETRA_OPT.cell (db6eaae92e6a5f18c152ebab86a92a61)
REM
REM compiler GCC version 4.9.2
REM options -cpp -iprefix /lustre/shared/ucl/apps/gcc/4.9.2/bin/../lib/gcc/x86_64-unknown-linux-gnu/4.9.2/ -mtune=corei7 -march=x86-64 -g -Og
REM COMMAND_LINE
REM seed -1438103520 -1123322554 1631346982 -1226378200 548388981 -665232782 1831663268 -1717875570 -1371806829 609280049 -701917209 -74186172
REM
REM Se 3|2.1|7|7|9|40:41:32(qc=5)
REM Ag 3|2.2|7|7|9|40U:50:41:42(qc=5)
REM 
CELL 1.54180    4.68336    6.41568    7.74913   78.31928   82.61524   98.29997
LATT -1
SFAC Se Ag 
Se     1  0.4471099826934  0.4853733114065 -0.0009822828636 1.0
Se     1  0.0244494475287 -0.0626005141657 -0.0815203217693 1.0
Se     1 -0.4794043881272  0.0446085510643  0.3804132674257 1.0
Se     1 -0.1476307329715 -0.4499464931726 -0.4566227058806 1.0
Ag     2  0.4571479035830 -0.1564594185929  0.1250131052310 1.0
Ag     2  0.0612513442294  0.1416035986315  0.2049039536454 1.0
Ag     2  0.3705214231419 -0.2735222175334 -0.3178440669363 1.0
Ag     2  0.3306441155639  0.4377621041406  0.4042969684507 1.0
Ag     2  0.4777685748550  0.1944370624661 -0.2790662614821 1.0
Ag     2 -0.1039484876827 -0.4418708529155  0.1914580790144 1.0
Ag     2 -0.0532824216766 -0.0021538807556 -0.4177464249982 1.0
Ag     2 -0.0541244611373  0.3545317494268 -0.1269987098372 1.0
END
