TITL 4Ag2Se_TETRA_OPT-200811-095215-0a77bc 0.0138 240.332245 -4.61181373E+004 0 0 12 (Pc) n - 1
REM
REM Run started: Tue, 11 Aug 2020 10:24:27 +0100 in /lustre/scratch/uccabz1/launch_tmp/launcher_2020-08-11-08-52-14-146655
REM CASTEP 20.1 from code version af48c487+ pr-geom-scf-spinfix Tue Jun 2 15:39:59 2020 +0100
REM Functional PBE for solids (2008) Relativity Koelling-Harmon Dispersion off
REM Cut-off 300.0000 eV Grid scale 1.7500 Gmax 15.5288 1/A FBSC none
REM MP grid 4 2 2 Offset 0.000 0.000 0.000 No. kpts 4 Spacing 0.07
REM Total runtime: 1950.79 s
REM Overall efficiency: 77.5 %
REM
REM 4Ag2Se_TETRA_OPT.cell (db6eaae92e6a5f18c152ebab86a92a61)
REM
REM compiler GCC version 4.9.2
REM options -cpp -iprefix /lustre/shared/ucl/apps/gcc/4.9.2/bin/../lib/gcc/x86_64-unknown-linux-gnu/4.9.2/ -mtune=corei7 -march=x86-64 -g -Og
REM COMMAND_LINE
REM seed -393074104 1704767414 949014242 1833790314 -585905539 -535169781 -1690354370 465461250 -789900224 125970315 1439748210 -579933413
REM
REM Se 3|2.1|7|7|9|40:41:32(qc=5)
REM Ag 3|2.2|7|7|9|40U:50:41:42(qc=5)
REM 
CELL 1.54180    4.54991    7.30030    7.24322   87.35534   90.00000   90.00000
LATT -1
SFAC Se Ag 
Se     1 -0.3126458105206 -0.2353017596558  0.2349959571666 1.0
Se     1  0.3126458105206 -0.2353017596558 -0.2650040428334 1.0
Se     1  0.3300579779343  0.3198657281644  0.0343348440919 1.0
Se     1 -0.3300579779343  0.3198657281644 -0.4656651559081 1.0
Ag     2  0.1860395268324 -0.0801119183459  0.3852528545181 1.0
Ag     2 -0.1860395268324 -0.0801119183459 -0.1147471454819 1.0
Ag     2 -0.3016502107694  0.1110749634427  0.2240881552846 1.0
Ag     2  0.3016502107694  0.1110749634427 -0.2759118447154 1.0
Ag     2  0.1676275549095 -0.3484001490216  0.0864892262479 1.0
Ag     2 -0.1676275549095 -0.3484001490216 -0.4135107737521 1.0
Ag     2  0.1561853591977  0.3223407354163  0.3704328626909 1.0
Ag     2 -0.1561853591977  0.3223407354163 -0.1295671373091 1.0
END
