TITL 4Ag2Se_TETRA-200803-164047-5e519f 0.0018 232.555958 -4.61177156E+004 0 0 12 (R3) n - 1
REM
REM Run started: Mon, 03 Aug 2020 17:04:10 +0100 in /lustre/scratch/uccabz1/launch_tmp/launcher_2020-08-03-15-40-45-895784
REM CASTEP 20.1 from code version af48c487+ pr-geom-scf-spinfix Tue Jun 2 15:39:59 2020 +0100
REM Functional PBE for solids (2008) Relativity Koelling-Harmon Dispersion off
REM Cut-off 300.0000 eV Grid scale 1.7500 Gmax 15.5288 1/A FBSC none
REM MP grid 3 3 3 Offset 0.000 0.000 0.000 No. kpts 6 Spacing 0.07
REM Total runtime: 1538.68 s
REM Overall efficiency: 64.0833 %
REM
REM 4Ag2Se_TETRA.cell (4020362940262d3df87d4014b41eb05e)
REM
REM compiler GCC version 4.9.2
REM options -cpp -iprefix /lustre/shared/ucl/apps/gcc/4.9.2/bin/../lib/gcc/x86_64-unknown-linux-gnu/4.9.2/ -mtune=corei7 -march=x86-64 -g -Og
REM COMMAND_LINE
REM seed -1128578201 1042783742 -1448342744 -766702589 -1644051814 1118970185 1522890250 462267958 -2057208159 -2106759195 1023443644 -1569705232
REM
REM Se 3|2.1|7|7|9|40:41:32(qc=5)
REM Ag 3|2.2|7|7|9|40U:50:41:42(qc=5)
REM 
CELL 1.54180    6.14955    6.14955    6.14955   90.12791   90.12791   90.12791
LATT -1
SFAC Se Ag 
Se     1  0.2649531501656 -0.3606719493253 -0.2329057558131 1.0
Se     1 -0.3606719493253 -0.2329057558131  0.2649531501656 1.0
Se     1 -0.2329057558131  0.2649531501656 -0.3606719493253 1.0
Se     1  0.1975244405870  0.1975244405870  0.1975244405870 1.0
Ag     2 -0.0141193901024 -0.0577696499876  0.4667924157326 1.0
Ag     2 -0.0577696499876  0.4667924157326 -0.0141193901024 1.0
Ag     2  0.4667924157326 -0.0141193901024 -0.0577696499876 1.0
Ag     2  0.2288593459278 -0.3964812242111  0.3412881240013 1.0
Ag     2 -0.3964812242111  0.3412881240013  0.2288593459278 1.0
Ag     2  0.3412881240013  0.2288593459278 -0.3964812242111 1.0
Ag     2 -0.3076763801417 -0.3076763801417 -0.3076763801417 1.0
Ag     2 -0.0505018268330 -0.0505018268330 -0.0505018268330 1.0
END
