TITL 4Ag2Se_TETRA-200803-170639-589201 0.0219 239.852754 -4.61182168E+004 0 0 12 (R3) n - 1
REM
REM Run started: Mon, 03 Aug 2020 17:30:57 +0100 in /lustre/scratch/uccabz1/launch_tmp/launcher_2020-08-03-16-06-37-945772
REM CASTEP 20.1 from code version af48c487+ pr-geom-scf-spinfix Tue Jun 2 15:39:59 2020 +0100
REM Functional PBE for solids (2008) Relativity Koelling-Harmon Dispersion off
REM Cut-off 300.0000 eV Grid scale 1.7500 Gmax 15.5288 1/A FBSC none
REM MP grid 3 3 3 Offset 0.000 0.000 0.000 No. kpts 6 Spacing 0.07
REM Total runtime: 1592.62 s
REM Overall efficiency: 63.25 %
REM
REM 4Ag2Se_TETRA.cell (4020362940262d3df87d4014b41eb05e)
REM
REM compiler GCC version 4.9.2
REM options -cpp -iprefix /lustre/shared/ucl/apps/gcc/4.9.2/bin/../lib/gcc/x86_64-unknown-linux-gnu/4.9.2/ -mtune=corei7 -march=x86-64 -g -Og
REM COMMAND_LINE
REM seed 1981048914 629049944 -1766809131 745292361 -1491319967 400653433 841338354 1324770525 -43453504 857338342 442933504 -373155604
REM
REM Se 3|2.1|7|7|9|40:41:32(qc=5)
REM Ag 3|2.2|7|7|9|40U:50:41:42(qc=5)
REM 
CELL 1.54180    6.21331    6.21331    6.21331   90.34633   90.34633   90.34633
LATT -1
SFAC Se Ag 
Se     1 -0.2679664966126  0.3012439729831  0.2026658037617 1.0
Se     1  0.2026658037617 -0.2679664966126  0.3012439729831 1.0
Se     1  0.3012439729831  0.2026658037617 -0.2679664966126 1.0
Se     1 -0.1741358961480 -0.1741358961480 -0.1741358961480 1.0
Ag     2 -0.4917785102082 -0.1016815497281  0.0915538646237 1.0
Ag     2  0.0915538646237 -0.4917785102082 -0.1016815497281 1.0
Ag     2 -0.1016815497281  0.0915538646237 -0.4917785102082 1.0
Ag     2 -0.1425776048065 -0.4279883107409  0.4914280747295 1.0
Ag     2  0.4914280747295 -0.1425776048065 -0.4279883107409 1.0
Ag     2 -0.4279883107409  0.4914280747295 -0.1425776048065 1.0
Ag     2  0.3322659013133  0.3322659013133  0.3322659013133 1.0
Ag     2  0.0708655508330  0.0708655508330  0.0708655508330 1.0
END
