TITL 4Ag2Se_TETRA-200803-163120-4a29ff -0.0191 229.589504 -4.61178190E+004 0 0 12 (P21) n - 1
REM
REM Run started: Mon, 03 Aug 2020 16:54:43 +0100 in /lustre/scratch/uccabz1/launch_tmp/launcher_2020-08-03-15-31-19-260255
REM CASTEP 20.1 from code version af48c487+ pr-geom-scf-spinfix Tue Jun 2 15:39:59 2020 +0100
REM Functional PBE for solids (2008) Relativity Koelling-Harmon Dispersion off
REM Cut-off 300.0000 eV Grid scale 1.7500 Gmax 15.5288 1/A FBSC none
REM MP grid 3 3 2 Offset 0.000 0.000 0.000 No. kpts 6 Spacing 0.07
REM Total runtime: 1531.97 s
REM Overall efficiency: 71.25 %
REM
REM 4Ag2Se_TETRA.cell (4020362940262d3df87d4014b41eb05e)
REM
REM compiler GCC version 4.9.2
REM options -cpp -iprefix /lustre/shared/ucl/apps/gcc/4.9.2/bin/../lib/gcc/x86_64-unknown-linux-gnu/4.9.2/ -mtune=corei7 -march=x86-64 -g -Og
REM COMMAND_LINE
REM seed -272284617 1162374060 -785287358 -450178201 -226743857 4968817 -559308767 -358900454 -395857848 1910104961 286142569 1254647185
REM
REM Se 3|2.1|7|7|9|40:41:32(qc=5)
REM Ag 3|2.2|7|7|9|40U:50:41:42(qc=5)
REM 
CELL 1.54180    5.18970    5.18520    8.53189   90.00000   90.11062   90.00000
LATT -1
SFAC Se Ag 
Se     1 -0.2585770743991 -0.1689890093689  0.3654779185710 1.0
Se     1  0.2585770743991  0.3310109906311 -0.3654779185710 1.0
Se     1  0.2190495291802  0.3217030319329  0.2021626718398 1.0
Se     1 -0.2190495291802 -0.1782969680671 -0.2021626718398 1.0
Ag     2 -0.1291160960337  0.0854879729269  0.0447215028253 1.0
Ag     2  0.1291160960337 -0.4145120270731 -0.0447215028253 1.0
Ag     2  0.3708437256749  0.0930200428785 -0.0944592048643 1.0
Ag     2 -0.3708437256749 -0.4069799571215  0.0944592048643 1.0
Ag     2 -0.3789188907348  0.3267848649396  0.4043958539801 1.0
Ag     2  0.3789188907348 -0.1732151350604 -0.4043958539801 1.0
Ag     2  0.2258132100727 -0.1744561033090  0.2850260338402 1.0
Ag     2 -0.2258132100727  0.3255438966910 -0.2850260338402 1.0
END
