TITL 4Ag2SE-200803-155105-0fb26d 0.0044 240.689235 -4.61180480E+004 0 0 12 (Immm) n - 1
REM
REM Run started: Mon, 03 Aug 2020 16:02:00 +0100 in /lustre/scratch/uccabz1/launch_tmp/launcher_2020-08-03-14-51-03-349413
REM CASTEP 20.1 from code version af48c487+ pr-geom-scf-spinfix Tue Jun 2 15:39:59 2020 +0100
REM Functional PBE for solids (2008) Relativity Koelling-Harmon Dispersion off
REM Cut-off 300.0000 eV Grid scale 1.7500 Gmax 15.5288 1/A FBSC none
REM MP grid 3 3 3 Offset 0.000 0.000 0.000 No. kpts 10 Spacing 0.07
REM Total runtime: 768.79 s
REM Overall efficiency: 90 %
REM
REM 4Ag2SE.cell (6404a18c6b5dc90313b5c56acf317f23)
REM
REM compiler GCC version 4.9.2
REM options -cpp -iprefix /lustre/shared/ucl/apps/gcc/4.9.2/bin/../lib/gcc/x86_64-unknown-linux-gnu/4.9.2/ -mtune=corei7 -march=x86-64 -g -Og
REM COMMAND_LINE
REM seed -242099515 -1857429462 -729321610 1322375552 1325941803 1569563497 -1263732237 -401358125 268888992 -1673769167 -1061799913 -622074076
REM
REM Se 3|2.1|7|7|9|40:41:32(qc=5)
REM Ag 3|2.2|7|7|9|40U:50:41:42(qc=5)
REM 
CELL 1.54180    5.93137    7.36902    7.36902   55.94686   67.57710   67.58259
LATT -1
SFAC Se Ag 
Se     1  0.1250000000000  0.1250000000000  0.1250000000000 1.0
Se     1 -0.1250000000000 -0.1250000000000 -0.1250000000000 1.0
Se     1 -0.3750000000000 -0.3750000000000 -0.3750000000000 1.0
Se     1  0.3750000000000  0.3750000000000  0.3750000000000 1.0
Ag     2 -0.2500000000000  0.0060297402823  0.4939702597177 1.0
Ag     2  0.2500000000000 -0.0060297402823 -0.4939702597177 1.0
Ag     2  0.0000000000000 -0.2560297402823  0.2560297402823 1.0
Ag     2  0.0000000000000  0.2560297402823 -0.2560297402823 1.0
Ag     2  0.2500000000000 -0.4939702597177 -0.0060297402823 1.0
Ag     2 -0.2500000000000  0.4939702597177  0.0060297402823 1.0
Ag     2 -0.5000000000000  0.2439702597177 -0.2439702597177 1.0
Ag     2  0.5000000000000 -0.2439702597177  0.2439702597177 1.0
END
