TITL 4Ag2Se_TETRA_OPT-200811-111728-02e6bd -0.0597 217.320685 -4.61184939E+004 0 0 12 (P-1) n - 1
REM
REM Run started: Tue, 11 Aug 2020 13:29:52 +0100 in /lustre/scratch/uccabz1/launch_tmp/launcher_2020-08-11-10-17-26-802790
REM CASTEP 20.1 from code version af48c487+ pr-geom-scf-spinfix Tue Jun 2 15:39:59 2020 +0100
REM Functional PBE for solids (2008) Relativity Koelling-Harmon Dispersion off
REM Cut-off 300.0000 eV Grid scale 1.7500 Gmax 15.5288 1/A FBSC none
REM MP grid 3 3 3 Offset 0.000 0.000 0.000 No. kpts 14 Spacing 0.07
REM Total runtime: 7976.89 s
REM Overall efficiency: 93.0833 %
REM
REM 4Ag2Se_TETRA_OPT.cell (db6eaae92e6a5f18c152ebab86a92a61)
REM
REM compiler GCC version 4.9.2
REM options -cpp -iprefix /lustre/shared/ucl/apps/gcc/4.9.2/bin/../lib/gcc/x86_64-unknown-linux-gnu/4.9.2/ -mtune=corei7 -march=x86-64 -g -Og
REM COMMAND_LINE
REM seed 1968868855 1149577505 258378424 1190734898 303046446 -1965414365 -9963334 1718655463 1013458649 -1817428609 1789219987 -33121225
REM
REM Se 3|2.1|7|7|9|40:41:32(qc=5)
REM Ag 3|2.2|7|7|9|40U:50:41:42(qc=5)
REM 
CELL 1.54180    5.10960    6.53196    6.54194   87.69231   85.80552   87.04069
LATT -1
SFAC Se Ag 
Se     1  0.1129625153458  0.3660185322400 -0.3124997688658 1.0
Se     1  0.4438009863765 -0.1052126605377  0.1918592080252 1.0
Se     1 -0.2212269554324  0.4210177691997  0.1560612690793 1.0
Se     1 -0.2200179016179 -0.1609660763911 -0.2781366018706 1.0
Ag     2  0.0136921243820  0.0384549494582  0.0177865750463 1.0
Ag     2 -0.4499808822145  0.2288430323593 -0.1452838399962 1.0
Ag     2 -0.2199690917365  0.1309271400146  0.4395015680724 1.0
Ag     2  0.2782820274221 -0.3661967763987 -0.0629023277450 1.0
Ag     2  0.0244963108535 -0.2907497070655  0.3541166767929 1.0
Ag     2  0.5285602114119 -0.4423452240417 -0.4799319669704 1.0
Ag     2  0.2761914009770  0.2988393074392  0.2669693944439 1.0
Ag     2  0.2833946542325 -0.0311383862762 -0.3933362860120 1.0
END
