TITL 4Ag2Se_TETRA_OPT-200811-094351-29adce -0.0680 222.824989 -4.61184088E+004 0 0 12 (P1) n - 1
REM
REM Run started: Tue, 11 Aug 2020 11:38:57 +0100 in /lustre/scratch/uccabz1/launch_tmp/launcher_2020-08-11-08-43-49-714354
REM CASTEP 20.1 from code version af48c487+ pr-geom-scf-spinfix Tue Jun 2 15:39:59 2020 +0100
REM Functional PBE for solids (2008) Relativity Koelling-Harmon Dispersion off
REM Cut-off 300.0000 eV Grid scale 1.7500 Gmax 15.5288 1/A FBSC none
REM MP grid 4 2 3 Offset 0.000 0.000 0.000 No. kpts 12 Spacing 0.07
REM Total runtime: 7071.33 s
REM Overall efficiency: 82.8182 %
REM
REM 4Ag2Se_TETRA_OPT.cell (db6eaae92e6a5f18c152ebab86a92a61)
REM
REM compiler GCC version 4.9.2
REM options -cpp -iprefix /lustre/shared/ucl/apps/gcc/4.9.2/bin/../lib/gcc/x86_64-unknown-linux-gnu/4.9.2/ -mtune=corei7 -march=x86-64 -g -Og
REM COMMAND_LINE
REM seed 709170249 1926101870 4736699 -1902083943 -206567113 -1031898334 -483026377 680872028 1564070142 479696979 152551681 6365901
REM
REM Se 3|2.1|7|7|9|40:41:32(qc=5)
REM Ag 3|2.2|7|7|9|40U:50:41:42(qc=5)
REM 
CELL 1.54180    4.60131    7.78271    6.39576   88.47042   89.03101   76.72715
LATT -1
SFAC Se Ag 
Se     1 -0.2449951774108  0.4715078990839 -0.5226766769845 1.0
Se     1  0.3890603285084 -0.0978545457045 -0.4218175295325 1.0
Se     1 -0.4095925037943  0.1900716824813  0.0780079756968 1.0
Se     1 -0.0417263217443 -0.2375605454552 -0.0431568402383 1.0
Ag     2  0.0965501820391  0.1660317606735  0.3411656842650 1.0
Ag     2  0.1226813612742  0.1269845932058 -0.1236384627917 1.0
Ag     2 -0.0807726206511 -0.1687331508928  0.3956810446218 1.0
Ag     2  0.2451368149017 -0.5026712416720  0.1978586974930 1.0
Ag     2  0.2253126009320 -0.4650261095523 -0.3342338248193 1.0
Ag     2 -0.3931327393028  0.1826013051610 -0.3807321968389 1.0
Ag     2 -0.2604578244698  0.4768902649818 -0.0774016017045 1.0
Ag     2  0.4295378997177 -0.1711161123104  0.1407534308331 1.0
END
