TITL 4Ag2SE-200803-154818-c6c528 0.0022 214.472812 -4.61182016E+004 0 0 12 (P21) n - 1
REM
REM Run started: Mon, 03 Aug 2020 16:51:58 +0100 in /lustre/scratch/uccabz1/launch_tmp/launcher_2020-08-03-14-48-16-591067
REM CASTEP 20.1 from code version af48c487+ pr-geom-scf-spinfix Tue Jun 2 15:39:59 2020 +0100
REM Functional PBE for solids (2008) Relativity Koelling-Harmon Dispersion off
REM Cut-off 300.0000 eV Grid scale 1.7500 Gmax 15.5288 1/A FBSC none
REM MP grid 4 3 2 Offset 0.000 0.000 0.000 No. kpts 6 Spacing 0.07
REM Total runtime: 3878.65 s
REM Overall efficiency: 74.9167 %
REM
REM 4Ag2SE.cell (6404a18c6b5dc90313b5c56acf317f23)
REM
REM compiler GCC version 4.9.2
REM options -cpp -iprefix /lustre/shared/ucl/apps/gcc/4.9.2/bin/../lib/gcc/x86_64-unknown-linux-gnu/4.9.2/ -mtune=corei7 -march=x86-64 -g -Og
REM COMMAND_LINE
REM seed 1129378011 -161019952 457155557 -981328614 143438247 -1527379496 1225520220 925217320 -1774273776 2063091102 -818401897 -1673080183
REM
REM Se 3|2.1|7|7|9|40:41:32(qc=5)
REM Ag 3|2.2|7|7|9|40U:50:41:42(qc=5)
REM 
CELL 1.54180    4.92871    7.07141    7.71422   90.00000   90.00000  127.08871
LATT -1
SFAC Se Ag 
Se     1  0.0919678482941  0.3694541754527 -0.3023214052987 1.0
Se     1 -0.0919678482941 -0.3694541754527  0.1976785947013 1.0
Se     1 -0.2485610035142  0.0549933757864  0.0647099401216 1.0
Se     1  0.2485610035142 -0.0549933757864 -0.4352900598784 1.0
Ag     2  0.6320885391196  0.4705127336731 -0.4644676822099 1.0
Ag     2 -0.6320885391196 -0.4705127336731  0.0355323177901 1.0
Ag     2  0.3742232182373  0.1633871617878 -0.1273962243029 1.0
Ag     2 -0.3742232182373 -0.1633871617878  0.3726037756971 1.0
Ag     2 -0.3336055290202 -0.1445015274618 -0.2627866629268 1.0
Ag     2  0.3336055290202  0.1445015274618  0.2372133370732 1.0
Ag     2 -0.0183037486358 -0.3472419839319 -0.1396173653833 1.0
Ag     2  0.0183037486358  0.3472419839319  0.3603826346167 1.0
END
