TITL 4Ag2Se_TETRA-200803-170412-89e27a -0.0039 225.200743 -4.61183574E+004 0 0 12 (P21) n - 1
REM
REM Run started: Mon, 03 Aug 2020 17:25:30 +0100 in /lustre/scratch/uccabz1/launch_tmp/launcher_2020-08-03-16-04-10-221982
REM CASTEP 20.1 from code version af48c487+ pr-geom-scf-spinfix Tue Jun 2 15:39:59 2020 +0100
REM Functional PBE for solids (2008) Relativity Koelling-Harmon Dispersion off
REM Cut-off 300.0000 eV Grid scale 1.7500 Gmax 15.5288 1/A FBSC none
REM MP grid 2 2 4 Offset 0.000 0.000 0.000 No. kpts 4 Spacing 0.07
REM Total runtime: 1422.65 s
REM Overall efficiency: 74.0833 %
REM
REM 4Ag2Se_TETRA.cell (4020362940262d3df87d4014b41eb05e)
REM
REM compiler GCC version 4.9.2
REM options -cpp -iprefix /lustre/shared/ucl/apps/gcc/4.9.2/bin/../lib/gcc/x86_64-unknown-linux-gnu/4.9.2/ -mtune=corei7 -march=x86-64 -g -Og
REM COMMAND_LINE
REM seed 162275225 356934841 508663079 2036983229 239086199 -457950642 -374028412 1660918678 -1129805839 1799259537 -2051628443 1816082537
REM
REM Se 3|2.1|7|7|9|40:41:32(qc=5)
REM Ag 3|2.2|7|7|9|40U:50:41:42(qc=5)
REM 
CELL 1.54180    7.59126    7.32045    4.05798   90.00000   92.98961   90.00000
LATT -1
SFAC Se Ag 
Se     1 -0.3762199802407  0.3750603910241 -0.1367658646067 1.0
Se     1  0.3762199802407 -0.1249396089759  0.1367658646067 1.0
Se     1  0.1017310905918  0.3549298966654 -0.3842008678327 1.0
Se     1 -0.1017310905918 -0.1450701033346  0.3842008678327 1.0
Ag     2  0.2007183392556 -0.2981918753904 -0.3688462176971 1.0
Ag     2 -0.2007183392556  0.2018081246096  0.3688462176971 1.0
Ag     2  0.3262943436491  0.4493417541228  0.1401909535472 1.0
Ag     2 -0.3262943436491 -0.0506582458772 -0.1401909535472 1.0
Ag     2 -0.3844485904636 -0.3565260644688  0.4164711166610 1.0
Ag     2  0.3844485904636  0.1434739355312 -0.4164711166610 1.0
Ag     2 -0.0691059672623 -0.4653435019530  0.0859492018576 1.0
Ag     2  0.0691059672623  0.0346564980470 -0.0859492018576 1.0
END
