TITL 4Ag2SE-200803-155103-76661c 0.0133 217.759335 -4.61187286E+004 0 0 12 (C2/m) n - 1
REM
REM Run started: Mon, 03 Aug 2020 16:35:16 +0100 in /lustre/scratch/uccabz1/launch_tmp/launcher_2020-08-03-14-51-01-751851
REM CASTEP 20.1 from code version af48c487+ pr-geom-scf-spinfix Tue Jun 2 15:39:59 2020 +0100
REM Functional PBE for solids (2008) Relativity Koelling-Harmon Dispersion off
REM Cut-off 300.0000 eV Grid scale 1.7500 Gmax 15.5288 1/A FBSC none
REM MP grid 4 4 2 Offset 0.000 0.000 0.000 No. kpts 10 Spacing 0.07
REM Total runtime: 3077.46 s
REM Overall efficiency: 92.8571 %
REM
REM 4Ag2SE.cell (6404a18c6b5dc90313b5c56acf317f23)
REM
REM compiler GCC version 4.9.2
REM options -cpp -iprefix /lustre/shared/ucl/apps/gcc/4.9.2/bin/../lib/gcc/x86_64-unknown-linux-gnu/4.9.2/ -mtune=corei7 -march=x86-64 -g -Og
REM COMMAND_LINE
REM seed -1025250739 -2092594511 -484786329 -157900591 -273963566 -1263131856 -334750307 -1916451289 175014136 -1890113186 1832601499 -1946950237
REM
REM Se 3|2.1|7|7|9|40:41:32(qc=5)
REM Ag 3|2.2|7|7|9|40U:50:41:42(qc=5)
REM 
CELL 1.54180    4.06609    4.06609   13.24982   94.40974   94.40974   90.09344
LATT -1
SFAC Se Ag 
Se     1 -0.2840806949397  0.2167669702233  0.3544729277247 1.0
Se     1  0.2832330297767 -0.2159193050603  0.1455270722753 1.0
Se     1  0.2840806949397 -0.2167669702233 -0.3544729277247 1.0
Se     1 -0.2832330297767  0.2159193050603 -0.1455270722753 1.0
Ag     2  0.2045508207464 -0.2983468691415 -0.1596650758700 1.0
Ag     2 -0.2016531308585  0.2954491792536 -0.3403349241300 1.0
Ag     2 -0.2045508207464  0.2983468691415  0.1596650758700 1.0
Ag     2  0.2016531308585 -0.2954491792536  0.3403349241300 1.0
Ag     2  0.2494551899527  0.2514268396687 -0.5001377831445 1.0
Ag     2  0.2485731603313  0.2505448100473  0.0001377831445 1.0
Ag     2 -0.2494551899527 -0.2514268396687  0.5001377831445 1.0
Ag     2 -0.2485731603313 -0.2505448100473 -0.0001377831445 1.0
END
