TITL 4Ag2SE-200803-154821-11dd41 -0.0511 220.490548 -4.61185023E+004 0 0 12 (Fmmm) n - 1
REM
REM Run started: Mon, 03 Aug 2020 16:55:07 +0100 in /lustre/scratch/uccabz1/launch_tmp/launcher_2020-08-03-14-48-20-266544
REM CASTEP 20.1 from code version af48c487+ pr-geom-scf-spinfix Tue Jun 2 15:39:59 2020 +0100
REM Functional PBE for solids (2008) Relativity Koelling-Harmon Dispersion off
REM Cut-off 300.0000 eV Grid scale 1.7500 Gmax 15.5288 1/A FBSC none
REM MP grid 3 3 3 Offset 0.000 0.000 0.000 No. kpts 8 Spacing 0.07
REM Total runtime: 4198.48 s
REM Overall efficiency: 93.1111 %
REM
REM 4Ag2SE.cell (6404a18c6b5dc90313b5c56acf317f23)
REM
REM compiler GCC version 4.9.2
REM options -cpp -iprefix /lustre/shared/ucl/apps/gcc/4.9.2/bin/../lib/gcc/x86_64-unknown-linux-gnu/4.9.2/ -mtune=corei7 -march=x86-64 -g -Og
REM COMMAND_LINE
REM seed -1787933895 763724436 -1064358803 -1226750612 -502760096 1603250826 1508940292 -2100594823 -2098251291 1137902643 -1692150933 55626948
REM
REM Se 3|2.1|7|7|9|40:41:32(qc=5)
REM Ag 3|2.2|7|7|9|40U:50:41:42(qc=5)
REM 
CELL 1.54180    5.73354    5.82454    7.21622  113.80171   90.00000   90.00000
LATT -1
SFAC Se Ag 
Se     1  0.3157607333701  0.1469000501572 -0.2074924122700 1.0
Se     1  0.3157607333701 -0.1469000501572  0.2074924122700 1.0
Se     1 -0.1842392666299 -0.3543924624272 -0.2074924122700 1.0
Se     1 -0.1842392666299  0.3543924624272  0.2074924122700 1.0
Ag     2 -0.1852786404601 -0.1531474332814  0.1923994351086 1.0
Ag     2 -0.1852786404601  0.1531474332814 -0.1923994351086 1.0
Ag     2  0.3147213595399  0.3455468683900  0.1923994351086 1.0
Ag     2  0.3147213595399 -0.3455468683900 -0.1923994351086 1.0
Ag     2 -0.4354276929100 -0.2505927795910  0.4998707235581 1.0
Ag     2 -0.4354276929100  0.2505927795910 -0.4998707235581 1.0
Ag     2  0.0645723070900 -0.2495364968509  0.4998707235581 1.0
Ag     2  0.0645723070900  0.2495364968509 -0.4998707235581 1.0
END
