TITL 4Ag2Se_TETRA_OPT-200811-110542-0cd501 -0.0302 226.021914 -4.61182522E+004 0 0 12 (P1) n - 1
REM
REM Run started: Tue, 11 Aug 2020 13:15:25 +0100 in /lustre/scratch/uccabz1/launch_tmp/launcher_2020-08-11-10-05-40-988856
REM CASTEP 20.1 from code version af48c487+ pr-geom-scf-spinfix Tue Jun 2 15:39:59 2020 +0100
REM Functional PBE for solids (2008) Relativity Koelling-Harmon Dispersion off
REM Cut-off 300.0000 eV Grid scale 1.7500 Gmax 15.5288 1/A FBSC none
REM MP grid 3 3 3 Offset 0.000 0.000 0.000 No. kpts 14 Spacing 0.07
REM Total runtime: 8035.52 s
REM Overall efficiency: 95.0909 %
REM
REM 4Ag2Se_TETRA_OPT.cell (db6eaae92e6a5f18c152ebab86a92a61)
REM
REM compiler GCC version 4.9.2
REM options -cpp -iprefix /lustre/shared/ucl/apps/gcc/4.9.2/bin/../lib/gcc/x86_64-unknown-linux-gnu/4.9.2/ -mtune=corei7 -march=x86-64 -g -Og
REM COMMAND_LINE
REM seed -202861065 1319836541 -212175631 -406719037 1349846956 1472013061 901828768 -1748313024 29911898 -1540886037 2004645009 -651444852
REM
REM Se 3|2.1|7|7|9|40:41:32(qc=5)
REM Ag 3|2.2|7|7|9|40U:50:41:42(qc=5)
REM 
CELL 1.54180    5.04193    6.59966    6.90399   90.01386  100.29449   89.45083
LATT -1
SFAC Se Ag 
Se     1 -0.1451838883392 -0.2979969658597 -0.1483572571988 1.0
Se     1 -0.4252470058916  0.1953395650426 -0.0646896994788 1.0
Se     1 -0.0174064438929  0.0714532333190  0.4027501908134 1.0
Se     1  0.4160077547109 -0.4343987976023  0.3822472100349 1.0
Ag     2  0.0991538408620  0.0433115397787 -0.0602422949774 1.0
Ag     2 -0.0499937246317 -0.3212623944946  0.4717744933335 1.0
Ag     2  0.4396208656728  0.1657849109818  0.3015374587857 1.0
Ag     2 -0.4287575479474 -0.1970808659039  0.1266791412174 1.0
Ag     2 -0.1935997617017  0.3186695350099 -0.3600990063812 1.0
Ag     2 -0.0163054755589  0.4207350603490  0.1390488771786 1.0
Ag     2  0.4190554468648 -0.0854580964180 -0.3572341039441 1.0
Ag     2  0.3090819398531  0.5236681757975 -0.1826556093834 1.0
END
