TITL 4Ag2SE-200803-155114-a68711 0.0527 213.449062 -4.61182627E+004 0 0 12 (C2/m) n - 1
REM
REM Run started: Mon, 03 Aug 2020 16:24:07 +0100 in /lustre/scratch/uccabz1/launch_tmp/launcher_2020-08-03-14-51-12-581989
REM CASTEP 20.1 from code version af48c487+ pr-geom-scf-spinfix Tue Jun 2 15:39:59 2020 +0100
REM Functional PBE for solids (2008) Relativity Koelling-Harmon Dispersion off
REM Cut-off 300.0000 eV Grid scale 1.7500 Gmax 15.5288 1/A FBSC none
REM MP grid 5 3 2 Offset 0.000 0.000 0.000 No. kpts 15 Spacing 0.07
REM Total runtime: 2638.97 s
REM Overall efficiency: 73.8571 %
REM
REM 4Ag2SE.cell (6404a18c6b5dc90313b5c56acf317f23)
REM
REM compiler GCC version 4.9.2
REM options -cpp -iprefix /lustre/shared/ucl/apps/gcc/4.9.2/bin/../lib/gcc/x86_64-unknown-linux-gnu/4.9.2/ -mtune=corei7 -march=x86-64 -g -Og
REM COMMAND_LINE
REM seed 1369313458 -249247427 1740773121 -964674116 1125714614 -1784884445 88552040 -583519243 -1299340198 709470834 2086723200 -1441202896
REM
REM Se 3|2.1|7|7|9|40:41:32(qc=5)
REM Ag 3|2.2|7|7|9|40U:50:41:42(qc=5)
REM 
CELL 1.54180    3.21602    6.61965   10.58694   79.24902   81.26374   75.94134
LATT -1
SFAC Se Ag 
Se     1 -0.2150052671936 -0.2314292169830 -0.3385603486298 1.0
Se     1 -0.2150052671936  0.2685707830170  0.1614396513702 1.0
Se     1  0.1031047671936 -0.2112396830170  0.0050300486298 1.0
Se     1  0.1031047671936  0.2887603169830  0.5050300486298 1.0
Ag     2 -0.2121701799700  0.0127436444509  0.4115966154890 1.0
Ag     2 -0.2121701799700  0.5127436444509 -0.0884033845110 1.0
Ag     2  0.4470882288161 -0.3503765029635  0.4561999453313 1.0
Ag     2  0.4470882288161  0.1496234970365 -0.0438000546687 1.0
Ag     2  0.1002696799700 -0.4554125444509  0.2548730845110 1.0
Ag     2  0.1002696799700  0.0445874555491 -0.2451269154890 1.0
Ag     2  0.4410112711839 -0.0922923970365  0.2102697546688 1.0
Ag     2  0.4410112711839  0.4077076029635 -0.2897302453313 1.0
END
