TITL 4Ag2Se_TETRA_OPT-200811-100439-f640d2 0.0605 218.623989 -4.61184330E+004 0 0 12 (P1) n - 1
REM
REM Run started: Tue, 11 Aug 2020 11:43:28 +0100 in /lustre/scratch/uccabz1/launch_tmp/launcher_2020-08-11-09-04-37-334148
REM CASTEP 20.1 from code version af48c487+ pr-geom-scf-spinfix Tue Jun 2 15:39:59 2020 +0100
REM Functional PBE for solids (2008) Relativity Koelling-Harmon Dispersion off
REM Cut-off 300.0000 eV Grid scale 1.7500 Gmax 15.5288 1/A FBSC none
REM MP grid 3 3 3 Offset 0.000 0.000 0.000 No. kpts 14 Spacing 0.07
REM Total runtime: 6066.78 s
REM Overall efficiency: 94.1111 %
REM
REM 4Ag2Se_TETRA_OPT.cell (db6eaae92e6a5f18c152ebab86a92a61)
REM
REM compiler GCC version 4.9.2
REM options -cpp -iprefix /lustre/shared/ucl/apps/gcc/4.9.2/bin/../lib/gcc/x86_64-unknown-linux-gnu/4.9.2/ -mtune=corei7 -march=x86-64 -g -Og
REM COMMAND_LINE
REM seed 972991373 258680349 841211598 -630871015 -1611974087 -357578250 -1677450581 1372140757 893158251 -466548908 -1888147129 757733251
REM
REM Se 3|2.1|7|7|9|40:41:32(qc=5)
REM Ag 3|2.2|7|7|9|40U:50:41:42(qc=5)
REM 
CELL 1.54180    4.97457    6.95188    6.37967   97.31135   91.72240   91.57195
LATT -1
SFAC Se Ag 
Se     1 -0.0225453799870  0.2104763789802  0.1751022483979 1.0
Se     1  0.4138850175699  0.3492736730266 -0.2319246900286 1.0
Se     1  0.3481131774123 -0.2655093246544  0.2043867080581 1.0
Se     1  0.0122691344384 -0.1839610477543 -0.2362397289461 1.0
Ag     2 -0.1569593008638 -0.4401881381682  0.0165148303601 1.0
Ag     2 -0.5120133247124  0.3652996591456  0.2703659251289 1.0
Ag     2 -0.4907575919831 -0.3111549201701 -0.3770372165676 1.0
Ag     2 -0.0128651093044  0.5027365502975 -0.5235318155134 1.0
Ag     2  0.4889538598665  0.0127285256380 -0.0319157007015 1.0
Ag     2 -0.1557000977223 -0.1147291523703  0.3455873663232 1.0
Ag     2  0.3625530803269  0.0490881717728  0.4907205894731 1.0
Ag     2 -0.1117029650408  0.1882946242565 -0.2782972159842 1.0
END
