TITL 4Ag2SE-200803-160659-9ca59c -0.0118 239.214641 -4.61172411E+004 0 0 12 (P3) n - 1
REM
REM Run started: Mon, 03 Aug 2020 16:46:19 +0100 in /lustre/scratch/uccabz1/launch_tmp/launcher_2020-08-03-15-06-57-186889
REM CASTEP 20.1 from code version af48c487+ pr-geom-scf-spinfix Tue Jun 2 15:39:59 2020 +0100
REM Functional PBE for solids (2008) Relativity Koelling-Harmon Dispersion off
REM Cut-off 300.0000 eV Grid scale 1.7500 Gmax 15.5288 1/A FBSC none
REM MP grid 3 3 3 Offset 0.000 0.000 0.000 No. kpts 8 Spacing 0.07
REM Total runtime: 2392.65 s
REM Overall efficiency: 88.7143 %
REM
REM 4Ag2SE.cell (6404a18c6b5dc90313b5c56acf317f23)
REM
REM compiler GCC version 4.9.2
REM options -cpp -iprefix /lustre/shared/ucl/apps/gcc/4.9.2/bin/../lib/gcc/x86_64-unknown-linux-gnu/4.9.2/ -mtune=corei7 -march=x86-64 -g -Og
REM COMMAND_LINE
REM seed 373406344 -2124823786 -726221077 848309680 -676787352 576287366 1469531347 -1964024512 -598003171 656958528 -1097645553 -1380243670
REM
REM Se 3|2.1|7|7|9|40:41:32(qc=5)
REM Ag 3|2.2|7|7|9|40U:50:41:42(qc=5)
REM 
CELL 1.54180    5.91105    6.83591    6.83591  120.00000   90.00000   90.00000
LATT -1
SFAC Se Ag 
Se     1  0.0210721232016 -0.3318985874330 -0.2794936495274 1.0
Se     1  0.0210721232016  0.2794936495274 -0.0524049379055 1.0
Se     1  0.0210721232016  0.0524049379055  0.3318985874330 1.0
Se     1 -0.4780361129121 -0.3333333333333  0.3333333333333 1.0
Ag     2  0.3179660270238  0.2723018391758  0.2264715387376 1.0
Ag     2  0.3179660270238 -0.2264715387376  0.0458303004382 1.0
Ag     2  0.3179660270238 -0.0458303004382 -0.2723018391758 1.0
Ag     2 -0.2784404544069  0.3708005942813  0.4370692163407 1.0
Ag     2 -0.2784404544069 -0.4370692163407 -0.0662686220594 1.0
Ag     2 -0.2784404544069  0.0662686220594 -0.3708005942813 1.0
Ag     2  0.0162404288986 -0.3333333333333  0.3333333333333 1.0
Ag     2  0.3223752965580  0.3333333333333 -0.3333333333333 1.0
END
