TITL 4Ag2SE-200803-154822-642ee4 -0.0163 218.226953 -4.61177198E+004 0 0 12 (Iba2) n - 1
REM
REM Run started: Mon, 03 Aug 2020 17:00:40 +0100 in /lustre/scratch/uccabz1/launch_tmp/launcher_2020-08-03-14-48-20-408379
REM CASTEP 20.1 from code version af48c487+ pr-geom-scf-spinfix Tue Jun 2 15:39:59 2020 +0100
REM Functional PBE for solids (2008) Relativity Koelling-Harmon Dispersion off
REM Cut-off 300.0000 eV Grid scale 1.7500 Gmax 15.5288 1/A FBSC none
REM MP grid 4 3 3 Offset 0.000 0.000 0.000 No. kpts 12 Spacing 0.07
REM Total runtime: 5040.1 s
REM Overall efficiency: 86.2222 %
REM
REM 4Ag2SE.cell (6404a18c6b5dc90313b5c56acf317f23)
REM
REM compiler GCC version 4.9.2
REM options -cpp -iprefix /lustre/shared/ucl/apps/gcc/4.9.2/bin/../lib/gcc/x86_64-unknown-linux-gnu/4.9.2/ -mtune=corei7 -march=x86-64 -g -Og
REM COMMAND_LINE
REM seed 260846869 -15852239 2008091108 -1051954591 94083979 -1950141329 -61944324 1222631655 -161125803 -88076033 1769969050 1713764795
REM
REM Se 3|2.1|7|7|9|40:41:32(qc=5)
REM Ag 3|2.2|7|7|9|40U:50:41:42(qc=5)
REM 
CELL 1.54180    5.28965    6.99095    6.99095   73.12054   67.77030   67.77030
LATT -1
SFAC Se Ag 
Se     1  0.2629199130464  0.4715933672440  0.2239113884990 1.0
Se     1 -0.0415753312106 -0.4715933672440 -0.2239113884990 1.0
Se     1 -0.2370800869536  0.2239113884990  0.4715933672440 1.0
Se     1  0.4584246687894 -0.2239113884990 -0.4715933672440 1.0
Ag     2  0.4875228925617  0.3882534598917 -0.1704723018857 1.0
Ag     2 -0.2946959494324 -0.3882534598917  0.1704723018857 1.0
Ag     2 -0.0124771074383 -0.1704723018857  0.3882534598917 1.0
Ag     2  0.2053040505676  0.1704723018857 -0.3882534598917 1.0
Ag     2  0.3928925396426  0.0608595439189  0.1899535518308 1.0
Ag     2 -0.3562943646077 -0.0608595439189 -0.1899535518308 1.0
Ag     2 -0.1071074603574  0.1899535518308  0.0608595439189 1.0
Ag     2  0.1437056353923 -0.1899535518308 -0.0608595439189 1.0
END
