TITL 4Ag2Se_TETRA-200803-162754-28ad5a -0.0210 241.540505 -4.61175439E+004 0 0 12 (C2/m) n - 1
REM
REM Run started: Mon, 03 Aug 2020 16:51:52 +0100 in /lustre/scratch/uccabz1/launch_tmp/launcher_2020-08-03-15-27-52-670270
REM CASTEP 20.1 from code version af48c487+ pr-geom-scf-spinfix Tue Jun 2 15:39:59 2020 +0100
REM Functional PBE for solids (2008) Relativity Koelling-Harmon Dispersion off
REM Cut-off 300.0000 eV Grid scale 1.7500 Gmax 15.5288 1/A FBSC none
REM MP grid 2 2 4 Offset 0.000 0.000 0.000 No. kpts 4 Spacing 0.07
REM Total runtime: 1586.72 s
REM Overall efficiency: 75.25 %
REM
REM 4Ag2Se_TETRA.cell (4020362940262d3df87d4014b41eb05e)
REM
REM compiler GCC version 4.9.2
REM options -cpp -iprefix /lustre/shared/ucl/apps/gcc/4.9.2/bin/../lib/gcc/x86_64-unknown-linux-gnu/4.9.2/ -mtune=corei7 -march=x86-64 -g -Og
REM COMMAND_LINE
REM seed 860443474 677556683 845902986 407771035 93552162 -576596524 719211520 510476713 -2134055949 389147896 -755295894 -217172796
REM
REM Se 3|2.1|7|7|9|40:41:32(qc=5)
REM Ag 3|2.2|7|7|9|40U:50:41:42(qc=5)
REM 
CELL 1.54180    7.54100    7.51017    4.34149   90.00000   90.00000  100.77626
LATT -1
SFAC Se Ag 
Se     1 -0.3228278248512 -0.3302855472586  0.2500000000000 1.0
Se     1  0.1771721751488 -0.3302855472586 -0.2500000000000 1.0
Se     1  0.3674219248512  0.1736782472586 -0.2500000000000 1.0
Se     1 -0.1325780751488  0.1736782472586  0.2500000000000 1.0
Ag     2 -0.4406602278717  0.3043247721645  0.2500000000000 1.0
Ag     2  0.0593397721283  0.3043247721645 -0.2500000000000 1.0
Ag     2 -0.3256928734652  0.0652159166975 -0.2500000000000 1.0
Ag     2  0.1743071265348  0.0652159166975  0.2500000000000 1.0
Ag     2  0.4852543278717 -0.4609320721645 -0.2500000000000 1.0
Ag     2 -0.0147456721283 -0.4609320721645  0.2500000000000 1.0
Ag     2  0.3702869734652 -0.2218232166975  0.2500000000000 1.0
Ag     2 -0.1297130265348 -0.2218232166975 -0.2500000000000 1.0
END
