TITL 4Ag2SE-200803-160659-2fd386 -0.0268 227.229331 -4.61176839E+004 0 0 12 (Iba2) n - 1
REM
REM Run started: Mon, 03 Aug 2020 16:56:00 +0100 in /lustre/scratch/uccabz1/launch_tmp/launcher_2020-08-03-15-06-57-379713
REM CASTEP 20.1 from code version af48c487+ pr-geom-scf-spinfix Tue Jun 2 15:39:59 2020 +0100
REM Functional PBE for solids (2008) Relativity Koelling-Harmon Dispersion off
REM Cut-off 300.0000 eV Grid scale 1.7500 Gmax 15.5288 1/A FBSC none
REM MP grid 3 3 3 Offset 0.000 0.000 0.000 No. kpts 8 Spacing 0.07
REM Total runtime: 3515.52 s
REM Overall efficiency: 93.375 %
REM
REM 4Ag2SE.cell (6404a18c6b5dc90313b5c56acf317f23)
REM
REM compiler GCC version 4.9.2
REM options -cpp -iprefix /lustre/shared/ucl/apps/gcc/4.9.2/bin/../lib/gcc/x86_64-unknown-linux-gnu/4.9.2/ -mtune=corei7 -march=x86-64 -g -Og
REM COMMAND_LINE
REM seed 1479986261 1705588693 1408045534 -1961039649 -1147560886 2081316536 168437298 1611295361 -1431399025 176067143 -806043102 -1108057912
REM
REM Se 3|2.1|7|7|9|40:41:32(qc=5)
REM Ag 3|2.2|7|7|9|40U:50:41:42(qc=5)
REM 
CELL 1.54180    6.17750    6.87655    6.87655   67.60872   63.30944   63.30944
LATT -1
SFAC Se Ag 
Se     1 -0.1452485781437 -0.0408619404802 -0.2787924679529 1.0
Se     1 -0.4649029865769  0.0408619404802  0.2787924679529 1.0
Se     1  0.3547514218563 -0.2787924679529 -0.0408619404802 1.0
Se     1  0.0350970134231  0.2787924679529  0.0408619404802 1.0
Ag     2  0.5053519065624 -0.6812196654264 -0.1224348554686 1.0
Ag     2 -0.2983026143326  0.6812196654264  0.1224348554686 1.0
Ag     2  0.0053519065624 -0.1224348554686  0.3187803345736 1.0
Ag     2  0.2016973856674  0.1224348554686 -0.3187803345736 1.0
Ag     2 -0.1463898889209  0.5568533484471 -0.2963289981143 1.0
Ag     2  0.1141344614119 -0.5568533484471  0.2963289981143 1.0
Ag     2  0.3536101110791 -0.2963289981143 -0.4431466515529 1.0
Ag     2 -0.3858655385881  0.2963289981143  0.4431466515529 1.0
END
