TITL 4Ag2SE-200803-155115-8b06ab 0.0358 227.214460 -4.61184812E+004 0 0 12 (P-43m) n - 1
REM
REM Run started: Mon, 03 Aug 2020 16:10:55 +0100 in /lustre/scratch/uccabz1/launch_tmp/launcher_2020-08-03-14-51-13-935161
REM CASTEP 20.1 from code version af48c487+ pr-geom-scf-spinfix Tue Jun 2 15:39:59 2020 +0100
REM Functional PBE for solids (2008) Relativity Koelling-Harmon Dispersion off
REM Cut-off 300.0000 eV Grid scale 1.7500 Gmax 15.5288 1/A FBSC none
REM MP grid 3 3 3 Offset 0.000 0.000 0.000 No. kpts 6 Spacing 0.07
REM Total runtime: 1214.49 s
REM Overall efficiency: 61.2857 %
REM
REM 4Ag2SE.cell (6404a18c6b5dc90313b5c56acf317f23)
REM
REM compiler GCC version 4.9.2
REM options -cpp -iprefix /lustre/shared/ucl/apps/gcc/4.9.2/bin/../lib/gcc/x86_64-unknown-linux-gnu/4.9.2/ -mtune=corei7 -march=x86-64 -g -Og
REM COMMAND_LINE
REM seed -1459592436 -1353076106 106389521 309167512 -1978048988 1403910195 -1856713566 1947367251 243460748 449381748 -736879446 -344392937
REM
REM Se 3|2.1|7|7|9|40:41:32(qc=5)
REM Ag 3|2.2|7|7|9|40U:50:41:42(qc=5)
REM 
CELL 1.54180    6.10212    6.10212    6.10212   89.82444   89.82444   89.82444
LATT -1
SFAC Se Ag 
Se     1  0.3415068605332 -0.1954960850752 -0.1960750027601 1.0
Se     1 -0.1960750027601  0.3415068605332 -0.1954960850752 1.0
Se     1 -0.1954960850752 -0.1960750027601  0.3415068605332 1.0
Se     1  0.3363728777507  0.3363728777507  0.3363728777507 1.0
Ag     2  0.0730962626322 -0.4246210738717  0.0709432065533 1.0
Ag     2  0.0709432065533  0.0730962626322 -0.4246210738717 1.0
Ag     2 -0.4246210738717  0.0709432065533  0.0730962626322 1.0
Ag     2  0.3599898625421 -0.2185777450666  0.3627632030029 1.0
Ag     2  0.3627632030029  0.3599898625421 -0.2185777450666 1.0
Ag     2 -0.2185777450666  0.3627632030029  0.3599898625421 1.0
Ag     2  0.0738606918714  0.0738606918714  0.0738606918714 1.0
Ag     2 -0.2150985581122 -0.2150985581122 -0.2150985581122 1.0
END
