TITL 4Ag2Se_TETRA-200803-170616-bee0ad -0.0168 243.222234 -4.61164954E+004 0 0 12 (P2) n - 1
REM
REM Run started: Mon, 03 Aug 2020 17:36:28 +0100 in /lustre/scratch/uccabz1/launch_tmp/launcher_2020-08-03-16-06-14-552134
REM CASTEP 20.1 from code version af48c487+ pr-geom-scf-spinfix Tue Jun 2 15:39:59 2020 +0100
REM Functional PBE for solids (2008) Relativity Koelling-Harmon Dispersion off
REM Cut-off 300.0000 eV Grid scale 1.7500 Gmax 15.5288 1/A FBSC none
REM MP grid 4 4 1 Offset 0.000 0.000 0.000 No. kpts 4 Spacing 0.07
REM Total runtime: 1993.2 s
REM Overall efficiency: 78.1667 %
REM
REM 4Ag2Se_TETRA.cell (4020362940262d3df87d4014b41eb05e)
REM
REM compiler GCC version 4.9.2
REM options -cpp -iprefix /lustre/shared/ucl/apps/gcc/4.9.2/bin/../lib/gcc/x86_64-unknown-linux-gnu/4.9.2/ -mtune=corei7 -march=x86-64 -g -Og
REM COMMAND_LINE
REM seed -1671237189 -1332740860 -1070541395 -1277452133 2123226245 -1339137295 135417552 1870082075 1837215350 1765000876 -2037092682 -2001459986
REM
REM Se 3|2.1|7|7|9|40:41:32(qc=5)
REM Ag 3|2.2|7|7|9|40U:50:41:42(qc=5)
REM 
CELL 1.54180    3.67742    4.31887   15.32066   88.31798   90.00000   90.00000
LATT -1
SFAC Se Ag 
Se     1  0.3041415275527  0.2411822076797 -0.3841245515657 1.0
Se     1  0.3041415275527 -0.2411822076797  0.3841245515657 1.0
Se     1  0.0738095871825 -0.2779920504314 -0.1882425412981 1.0
Se     1  0.0738095871825  0.2779920504314  0.1882425412981 1.0
Ag     2 -0.4311233774995 -0.2433120100191  0.2122122692715 1.0
Ag     2 -0.4311233774995  0.2433120100191 -0.2122122692715 1.0
Ag     2 -0.3883939601624 -0.2587695089125 -0.3333011919802 1.0
Ag     2 -0.3883939601624  0.2587695089125  0.3333011919802 1.0
Ag     2 -0.4191429703041  0.2542601400571  0.0580550671846 1.0
Ag     2 -0.4191429703041 -0.2542601400571 -0.0580550671846 1.0
Ag     2  0.0776261932308 -0.2240066674612  0.0747023879196 1.0
Ag     2  0.0776261932308  0.2240066674612 -0.0747023879196 1.0
END
