TITL 4Ag2Se_TETRA-200803-165355-1ebd03 0.0278 241.234848 -4.61173735E+004 0 0 12 (R3) n - 1
REM
REM Run started: Mon, 03 Aug 2020 17:19:30 +0100 in /lustre/scratch/uccabz1/launch_tmp/launcher_2020-08-03-15-53-53-456227
REM CASTEP 20.1 from code version af48c487+ pr-geom-scf-spinfix Tue Jun 2 15:39:59 2020 +0100
REM Functional PBE for solids (2008) Relativity Koelling-Harmon Dispersion off
REM Cut-off 300.0000 eV Grid scale 1.7500 Gmax 15.5288 1/A FBSC none
REM MP grid 3 3 3 Offset 0.000 0.000 0.000 No. kpts 6 Spacing 0.07
REM Total runtime: 1686.92 s
REM Overall efficiency: 64.1667 %
REM
REM 4Ag2Se_TETRA.cell (4020362940262d3df87d4014b41eb05e)
REM
REM compiler GCC version 4.9.2
REM options -cpp -iprefix /lustre/shared/ucl/apps/gcc/4.9.2/bin/../lib/gcc/x86_64-unknown-linux-gnu/4.9.2/ -mtune=corei7 -march=x86-64 -g -Og
REM COMMAND_LINE
REM seed 2026796926 -642240018 490072277 -918283541 -1574865573 1763401287 -1769448558 637601634 1132890001 894756875 1065044918 1115942261
REM
REM Se 3|2.1|7|7|9|40:41:32(qc=5)
REM Ag 3|2.2|7|7|9|40U:50:41:42(qc=5)
REM 
CELL 1.54180    6.22524    6.22524    6.22524   90.37907   90.37907   90.37907
LATT -1
SFAC Se Ag 
Se     1 -0.2329691302275 -0.2944022693772  0.3235835284865 1.0
Se     1 -0.2944022693772  0.3235835284865 -0.2329691302275 1.0
Se     1  0.3235835284865 -0.2329691302275 -0.2944022693772 1.0
Se     1  0.1538929643292  0.1538929643292  0.1538929643292 1.0
Ag     2  0.3189265096054  0.1794711946162 -0.2386457947858 1.0
Ag     2  0.1794711946162 -0.2386457947858  0.3189265096054 1.0
Ag     2 -0.2386457947858  0.3189265096054  0.1794711946162 1.0
Ag     2 -0.4751113621264 -0.0443383838471  0.1243050096704 1.0
Ag     2 -0.0443383838471  0.1243050096704 -0.4751113621264 1.0
Ag     2  0.1243050096704 -0.4751113621264 -0.0443383838471 1.0
Ag     2  0.3980506470118  0.3980506470118  0.3980506470118 1.0
Ag     2 -0.2418728133554 -0.2418728133554 -0.2418728133554 1.0
END
