TITL 4Ag2Se_TETRA_OPT-200811-094456-77cecf -0.0279 232.463593 -4.61181564E+004 0 0 12 (Pca21) n - 1
REM
REM Run started: Tue, 11 Aug 2020 10:04:51 +0100 in /lustre/scratch/uccabz1/launch_tmp/launcher_2020-08-11-08-44-54-846910
REM CASTEP 20.1 from code version af48c487+ pr-geom-scf-spinfix Tue Jun 2 15:39:59 2020 +0100
REM Functional PBE for solids (2008) Relativity Koelling-Harmon Dispersion off
REM Cut-off 300.0000 eV Grid scale 1.7500 Gmax 15.5288 1/A FBSC none
REM MP grid 4 2 3 Offset 0.000 0.000 0.000 No. kpts 4 Spacing 0.07
REM Total runtime: 1258.79 s
REM Overall efficiency: 74.4286 %
REM
REM 4Ag2Se_TETRA_OPT.cell (db6eaae92e6a5f18c152ebab86a92a61)
REM
REM compiler GCC version 4.9.2
REM options -cpp -iprefix /lustre/shared/ucl/apps/gcc/4.9.2/bin/../lib/gcc/x86_64-unknown-linux-gnu/4.9.2/ -mtune=corei7 -march=x86-64 -g -Og
REM COMMAND_LINE
REM seed -1728454153 -95550216 1925322737 -1011618031 -2086973416 -679117199 -306782743 -662209007 -1774986598 -1391738349 -763350977 1264662149
REM
REM Se 3|2.1|7|7|9|40:41:32(qc=5)
REM Ag 3|2.2|7|7|9|40U:50:41:42(qc=5)
REM 
CELL 1.54180    4.34063    7.70652    6.94935   90.00000   90.00000   90.00000
LATT -1
SFAC Se Ag 
Se     1 -0.2176851147575 -0.3964329012655 -0.3001159126955 1.0
Se     1  0.2176851147575  0.3964329012655  0.1998840873045 1.0
Se     1  0.2176851147575  0.1035670987345 -0.3001159126955 1.0
Se     1 -0.2176851147575 -0.1035670987345  0.1998840873045 1.0
Ag     2 -0.2871724767343 -0.4331441908507  0.0685815670244 1.0
Ag     2  0.2871724767343  0.4331441908507 -0.4314184329756 1.0
Ag     2  0.2871724767343  0.0668558091493  0.0685815670244 1.0
Ag     2 -0.2871724767343 -0.0668558091493 -0.4314184329756 1.0
Ag     2  0.2767374837954 -0.2684415839158  0.3249510456711 1.0
Ag     2 -0.2767374837954  0.2684415839158 -0.1750489543289 1.0
Ag     2 -0.2767374837954  0.2315584160842  0.3249510456711 1.0
Ag     2  0.2767374837954 -0.2315584160842 -0.1750489543289 1.0
END
