TITL 4Ag2Se_TETRA-200803-170148-b717f4 -0.0058 218.228525 -4.61177321E+004 0 0 12 (P21) n - 1
REM
REM Run started: Mon, 03 Aug 2020 17:40:57 +0100 in /lustre/scratch/uccabz1/launch_tmp/launcher_2020-08-03-16-01-47-159562
REM CASTEP 20.1 from code version af48c487+ pr-geom-scf-spinfix Tue Jun 2 15:39:59 2020 +0100
REM Functional PBE for solids (2008) Relativity Koelling-Harmon Dispersion off
REM Cut-off 300.0000 eV Grid scale 1.7500 Gmax 15.5288 1/A FBSC none
REM MP grid 3 3 2 Offset 0.000 0.000 0.000 No. kpts 6 Spacing 0.07
REM Total runtime: 2462.65 s
REM Overall efficiency: 88.5833 %
REM
REM 4Ag2Se_TETRA.cell (4020362940262d3df87d4014b41eb05e)
REM
REM compiler GCC version 4.9.2
REM options -cpp -iprefix /lustre/shared/ucl/apps/gcc/4.9.2/bin/../lib/gcc/x86_64-unknown-linux-gnu/4.9.2/ -mtune=corei7 -march=x86-64 -g -Og
REM COMMAND_LINE
REM seed -642243343 -571322886 -2054905858 19466923 -377342301 2052286672 -1162768397 1813922420 -2001466967 -813679364 1845999685 -24426336
REM
REM Se 3|2.1|7|7|9|40:41:32(qc=5)
REM Ag 3|2.2|7|7|9|40U:50:41:42(qc=5)
REM 
CELL 1.54180    5.42438    4.78385    8.42232   93.13002   90.00000   90.00000
LATT -1
SFAC Se Ag 
Se     1 -0.1652415985375  0.1826682069132  0.3850453929441 1.0
Se     1  0.3347584014625 -0.1826682069132 -0.3850453929441 1.0
Se     1 -0.1666595691539 -0.3187038384310 -0.1181140132973 1.0
Se     1  0.3333404308461  0.3187038384310  0.1181140132973 1.0
Ag     2 -0.1681502211957  0.1963637076165  0.0435676101805 1.0
Ag     2  0.3318497788043 -0.1963637076165 -0.0435676101805 1.0
Ag     2 -0.0760890333064  0.1874888995140 -0.2879793487367 1.0
Ag     2  0.4239109666936 -0.1874888995140  0.2879793487367 1.0
Ag     2  0.4269151702528  0.2865150744007 -0.2017014534133 1.0
Ag     2 -0.0730848297472 -0.2865150744007  0.2017014534133 1.0
Ag     2 -0.1675532480593 -0.3135096695069 -0.4582166826529 1.0
Ag     2  0.3324467519407  0.3135096695069  0.4582166826529 1.0
END
