TITL 4Ag2SE-200803-160704-c613ac 0.0004 215.040975 -4.61184110E+004 0 0 12 (P21/c) n - 1
REM
REM Run started: Mon, 03 Aug 2020 16:56:31 +0100 in /lustre/scratch/uccabz1/launch_tmp/launcher_2020-08-03-15-07-01-988396
REM CASTEP 20.1 from code version af48c487+ pr-geom-scf-spinfix Tue Jun 2 15:39:59 2020 +0100
REM Functional PBE for solids (2008) Relativity Koelling-Harmon Dispersion off
REM Cut-off 300.0000 eV Grid scale 1.7500 Gmax 15.5288 1/A FBSC none
REM MP grid 4 3 2 Offset 0.000 0.000 0.000 No. kpts 12 Spacing 0.07
REM Total runtime: 3212.57 s
REM Overall efficiency: 76.25 %
REM
REM 4Ag2SE.cell (6404a18c6b5dc90313b5c56acf317f23)
REM
REM compiler GCC version 4.9.2
REM options -cpp -iprefix /lustre/shared/ucl/apps/gcc/4.9.2/bin/../lib/gcc/x86_64-unknown-linux-gnu/4.9.2/ -mtune=corei7 -march=x86-64 -g -Og
REM COMMAND_LINE
REM seed -148962781 -1068042220 -1422563452 -220849346 839861169 1779901577 605319102 128564882 1709875656 2004193394 267326269 1810482246
REM
REM Se 3|2.1|7|7|9|40:41:32(qc=5)
REM Ag 3|2.2|7|7|9|40U:50:41:42(qc=5)
REM 
CELL 1.54180    4.53312    5.79699    8.37633   89.85921   89.97714   77.67233
LATT -1
SFAC Se Ag 
Se     1  0.2245764499023 -0.2836704903241 -0.1092607908441 1.0
Se     1 -0.2245764499023  0.2836704903241  0.1092607908441 1.0
Se     1 -0.2253060548090 -0.2165133052384  0.3908391024210 1.0
Se     1  0.2253060548090  0.2165133052384 -0.3908391024210 1.0
Ag     2  0.2999990407182  0.1977007153855 -0.0633848236362 1.0
Ag     2 -0.2999990407182 -0.1977007153855  0.0633848236362 1.0
Ag     2 -0.2524657180069 -0.0694272568870 -0.2797704954114 1.0
Ag     2  0.2524657180069  0.0694272568870  0.2797704954114 1.0
Ag     2 -0.2520469084961  0.4310323418571 -0.2204908694009 1.0
Ag     2  0.2520469084961 -0.4310323418571  0.2204908694009 1.0
Ag     2  0.2986170824968 -0.3027146420380 -0.4367546778188 1.0
Ag     2 -0.2986170824968  0.3027146420380  0.4367546778188 1.0
END
