TITL 4Ag2SE-200803-160653-9eb8a5 -0.0619 225.612826 -4.61177132E+004 0 0 12 (Cmc21) n - 1
REM
REM Run started: Mon, 03 Aug 2020 16:27:34 +0100 in /lustre/scratch/uccabz1/launch_tmp/launcher_2020-08-03-15-06-51-561953
REM CASTEP 20.1 from code version af48c487+ pr-geom-scf-spinfix Tue Jun 2 15:39:59 2020 +0100
REM Functional PBE for solids (2008) Relativity Koelling-Harmon Dispersion off
REM Cut-off 300.0000 eV Grid scale 1.7500 Gmax 15.5288 1/A FBSC none
REM MP grid 3 3 2 Offset 0.000 0.000 0.000 No. kpts 6 Spacing 0.07
REM Total runtime: 1582.02 s
REM Overall efficiency: 73.2857 %
REM
REM 4Ag2SE.cell (6404a18c6b5dc90313b5c56acf317f23)
REM
REM compiler GCC version 4.9.2
REM options -cpp -iprefix /lustre/shared/ucl/apps/gcc/4.9.2/bin/../lib/gcc/x86_64-unknown-linux-gnu/4.9.2/ -mtune=corei7 -march=x86-64 -g -Og
REM COMMAND_LINE
REM seed 1206538778 -1641571066 1762114998 1475692730 -378193644 -1406622541 -478786227 370725987 -1496551558 -1232925809 515850436 -772015584
REM
REM Se 3|2.1|7|7|9|40:41:32(qc=5)
REM Ag 3|2.2|7|7|9|40U:50:41:42(qc=5)
REM 
CELL 1.54180    5.09986    5.82394    8.13509  110.97449   90.00000   90.00000
LATT -1
SFAC Se Ag 
Se     1  0.1238738956764  0.4158878089561  0.2189199159378 1.0
Se     1 -0.3761261043236 -0.4158878089561 -0.2189199159378 1.0
Se     1 -0.3761261043236 -0.1969678930184  0.2189199159378 1.0
Se     1  0.1238738956764  0.1969678930184 -0.2189199159378 1.0
Ag     2  0.3131197125058  0.3639875771144 -0.4962466032054 1.0
Ag     2 -0.1868802874942 -0.3639875771144  0.4962466032054 1.0
Ag     2 -0.1868802874942  0.1397658196802 -0.4962466032054 1.0
Ag     2  0.3131197125058 -0.1397658196802  0.4962466032054 1.0
Ag     2 -0.3739186081822  0.0672605525240 -0.1853524090342 1.0
Ag     2  0.1260813918178 -0.0672605525240  0.1853524090342 1.0
Ag     2  0.1260813918178 -0.2526129615582 -0.1853524090342 1.0
Ag     2 -0.3739186081822  0.2526129615582  0.1853524090342 1.0
END
