TITL 4Ag2SE-200803-155105-525e25 0.0033 229.017109 -4.61183399E+004 0 0 12 (P21) n - 1
REM
REM Run started: Mon, 03 Aug 2020 16:21:33 +0100 in /lustre/scratch/uccabz1/launch_tmp/launcher_2020-08-03-14-51-03-217848
REM CASTEP 20.1 from code version af48c487+ pr-geom-scf-spinfix Tue Jun 2 15:39:59 2020 +0100
REM Functional PBE for solids (2008) Relativity Koelling-Harmon Dispersion off
REM Cut-off 300.0000 eV Grid scale 1.7500 Gmax 15.5288 1/A FBSC none
REM MP grid 4 2 2 Offset 0.000 0.000 0.000 No. kpts 4 Spacing 0.07
REM Total runtime: 1905.14 s
REM Overall efficiency: 73.2222 %
REM
REM 4Ag2SE.cell (6404a18c6b5dc90313b5c56acf317f23)
REM
REM compiler GCC version 4.9.2
REM options -cpp -iprefix /lustre/shared/ucl/apps/gcc/4.9.2/bin/../lib/gcc/x86_64-unknown-linux-gnu/4.9.2/ -mtune=corei7 -march=x86-64 -g -Og
REM COMMAND_LINE
REM seed 357181643 2078220536 1337806007 307374077 -360145300 1614593614 -1411378441 60146981 -1481650708 -214454116 -1196960209 1180840239
REM
REM Se 3|2.1|7|7|9|40:41:32(qc=5)
REM Ag 3|2.2|7|7|9|40U:50:41:42(qc=5)
REM 
CELL 1.54180    4.16568    7.65076    7.18760   90.00000   90.00000   88.72816
LATT -1
SFAC Se Ag 
Se     1 -0.1992347933822 -0.1480374855089  0.2377421069820 1.0
Se     1  0.1992347933822  0.1480374855089 -0.2622578930180 1.0
Se     1  0.5385720777900 -0.3800002030579 -0.2115520447408 1.0
Se     1 -0.5385720777900  0.3800002030579  0.2884479552592 1.0
Ag     2 -0.0399444430054 -0.1411181474219 -0.1604243293508 1.0
Ag     2  0.0399444430054  0.1411181474219  0.3395756706492 1.0
Ag     2  0.4782935591293  0.0894299006972  0.0501010563745 1.0
Ag     2 -0.4782935591293 -0.0894299006972 -0.4498989436255 1.0
Ag     2 -0.0750182916562  0.3642875038457  0.0082836236310 1.0
Ag     2  0.0750182916562 -0.3642875038457 -0.4917163763690 1.0
Ag     2 -0.2848480709929  0.3321653222238 -0.3798773128958 1.0
Ag     2  0.2848480709929 -0.3321653222238  0.1201226871042 1.0
END
