TITL 4Ag2SE-200803-160658-56caef 0.0337 213.287175 -4.61176971E+004 0 0 12 (P42cm) n - 1
REM
REM Run started: Mon, 03 Aug 2020 16:19:09 +0100 in /lustre/scratch/uccabz1/launch_tmp/launcher_2020-08-03-15-06-55-960913
REM CASTEP 20.1 from code version af48c487+ pr-geom-scf-spinfix Tue Jun 2 15:39:59 2020 +0100
REM Functional PBE for solids (2008) Relativity Koelling-Harmon Dispersion off
REM Cut-off 300.0000 eV Grid scale 1.7500 Gmax 15.5288 1/A FBSC none
REM MP grid 3 3 2 Offset 0.000 0.000 0.000 No. kpts 3 Spacing 0.07
REM Total runtime: 769.36 s
REM Overall efficiency: 66.75 %
REM
REM 4Ag2SE.cell (6404a18c6b5dc90313b5c56acf317f23)
REM
REM compiler GCC version 4.9.2
REM options -cpp -iprefix /lustre/shared/ucl/apps/gcc/4.9.2/bin/../lib/gcc/x86_64-unknown-linux-gnu/4.9.2/ -mtune=corei7 -march=x86-64 -g -Og
REM COMMAND_LINE
REM seed 192521521 -1299991857 1084631704 -135809813 -1153933404 -2129228601 -1372056111 1929925160 1022227732 305424514 1742812951 49992413
REM
REM Se 3|2.1|7|7|9|40:41:32(qc=5)
REM Ag 3|2.2|7|7|9|40U:50:41:42(qc=5)
REM 
CELL 1.54180    5.07953    5.07953    8.26642   90.00000   90.00000   90.00000
LATT -1
SFAC Se Ag 
Se     1 -0.2398685723450  0.2427026603835 -0.3933125780467 1.0
Se     1  0.2398685723450 -0.2427026603835 -0.3933125780467 1.0
Se     1  0.2427026603835  0.2398685723450  0.1066874219533 1.0
Se     1 -0.2427026603835 -0.2398685723450  0.1066874219533 1.0
Ag     2 -0.2455710267274 -0.2398196786954 -0.2243633303568 1.0
Ag     2  0.2455710267274  0.2398196786954 -0.2243633303568 1.0
Ag     2 -0.2398196786954  0.2455710267274  0.2756366696432 1.0
Ag     2  0.2398196786954 -0.2455710267274  0.2756366696432 1.0
Ag     2  0.2603422305195 -0.2659803160287 -0.0614732915965 1.0
Ag     2 -0.2603422305195  0.2659803160287 -0.0614732915965 1.0
Ag     2 -0.2659803160287 -0.2603422305195  0.4385267084035 1.0
Ag     2  0.2659803160287  0.2603422305195  0.4385267084035 1.0
END
