TITL 4Ag2SE-200803-155108-32cf22 0.0056 229.746798 -4.61180890E+004 0 0 12 (Pca21) n - 1
REM
REM Run started: Mon, 03 Aug 2020 16:10:45 +0100 in /lustre/scratch/uccabz1/launch_tmp/launcher_2020-08-03-14-51-06-100690
REM CASTEP 20.1 from code version af48c487+ pr-geom-scf-spinfix Tue Jun 2 15:39:59 2020 +0100
REM Functional PBE for solids (2008) Relativity Koelling-Harmon Dispersion off
REM Cut-off 300.0000 eV Grid scale 1.7500 Gmax 15.5288 1/A FBSC none
REM MP grid 4 2 3 Offset 0.000 0.000 0.000 No. kpts 4 Spacing 0.07
REM Total runtime: 1398.11 s
REM Overall efficiency: 67.3636 %
REM
REM 4Ag2SE.cell (6404a18c6b5dc90313b5c56acf317f23)
REM
REM compiler GCC version 4.9.2
REM options -cpp -iprefix /lustre/shared/ucl/apps/gcc/4.9.2/bin/../lib/gcc/x86_64-unknown-linux-gnu/4.9.2/ -mtune=corei7 -march=x86-64 -g -Og
REM COMMAND_LINE
REM seed 928490642 1551768755 -31098108 -450521401 -946471924 572215665 -949604235 -444996665 -613448874 -253307976 -822878353 -1160367780
REM
REM Se 3|2.1|7|7|9|40:41:32(qc=5)
REM Ag 3|2.2|7|7|9|40U:50:41:42(qc=5)
REM 
CELL 1.54180    3.91494    8.40616    6.98115   90.00000   90.00000   90.00000
LATT -1
SFAC Se Ag 
Se     1 -0.2693629747756 -0.1626304710651 -0.3807126947208 1.0
Se     1  0.2693629747756  0.1626304710651  0.1192873052792 1.0
Se     1  0.2693629747756  0.3373695289349 -0.3807126947208 1.0
Se     1 -0.2693629747756 -0.3373695289349  0.1192873052792 1.0
Ag     2 -0.3827424328187  0.1073679108694 -0.2013297909805 1.0
Ag     2  0.3827424328187 -0.1073679108694  0.2986702090195 1.0
Ag     2  0.3827424328187 -0.3926320891306 -0.2013297909805 1.0
Ag     2 -0.3827424328187  0.3926320891306  0.2986702090195 1.0
Ag     2  0.1115795369454 -0.1075502462157 -0.0692498142987 1.0
Ag     2 -0.1115795369454  0.1075502462157  0.4307501857013 1.0
Ag     2 -0.1115795369454  0.3924497537843 -0.0692498142987 1.0
Ag     2  0.1115795369454 -0.3924497537843  0.4307501857013 1.0
END
