TITL 4Ag2Se_TETRA_OPT-200811-111916-2883ec -0.0289 222.541127 -4.61185823E+004 0 0 12 (Pm) n - 1
REM
REM Run started: Tue, 11 Aug 2020 13:16:48 +0100 in /lustre/scratch/uccabz1/launch_tmp/launcher_2020-08-11-10-19-15-055934
REM CASTEP 20.1 from code version af48c487+ pr-geom-scf-spinfix Tue Jun 2 15:39:59 2020 +0100
REM Functional PBE for solids (2008) Relativity Koelling-Harmon Dispersion off
REM Cut-off 300.0000 eV Grid scale 1.7500 Gmax 15.5288 1/A FBSC none
REM MP grid 4 3 3 Offset 0.000 0.000 0.000 No. kpts 18 Spacing 0.07
REM Total runtime: 7100.43 s
REM Overall efficiency: 92.3077 %
REM
REM 4Ag2Se_TETRA_OPT.cell (db6eaae92e6a5f18c152ebab86a92a61)
REM
REM compiler GCC version 4.9.2
REM options -cpp -iprefix /lustre/shared/ucl/apps/gcc/4.9.2/bin/../lib/gcc/x86_64-unknown-linux-gnu/4.9.2/ -mtune=corei7 -march=x86-64 -g -Og
REM COMMAND_LINE
REM seed -1899781768 -872759506 800104838 1799286195 -1984189923 -1094887745 1581515817 -1073851124 -1267762179 -710819481 1704279388 1605346300
REM
REM Se 3|2.1|7|7|9|40:41:32(qc=5)
REM Ag 3|2.2|7|7|9|40U:50:41:42(qc=5)
REM 
CELL 1.54180    4.67398    7.06009    6.87643  101.26396   89.89774   89.84695
LATT -1
SFAC Se Ag 
Se     1 -0.0204125620377 -0.4572229378705  0.4835110389707 1.0
Se     1 -0.5211019252571  0.0125544029117 -0.3993515164592 1.0
Se     1 -0.0207140604459  0.1302615270512  0.0609958345538 1.0
Se     1  0.4789939949387 -0.3176243688155 -0.0734662602989 1.0
Ag     2 -0.0204692592264  0.2550043006557 -0.2892729486308 1.0
Ag     2 -0.0209568860083  0.5570818232899  0.0712273745462 1.0
Ag     2 -0.0211921530245 -0.1720996378055 -0.2158583718329 1.0
Ag     2 -0.5213227477225  0.3183195671268 -0.0305123757649 1.0
Ag     2  0.4786180791778  0.0412772108721  0.2133846625229 1.0
Ag     2 -0.5209110238267 -0.3404676595026  0.3064272807395 1.0
Ag     2 -0.5195090418038  0.3739388876252  0.5392134983719 1.0
Ag     2 -0.0205356147637 -0.0778144155383  0.3863213832816 1.0
END
