TITL 4Ag2Se_TETRA-200803-164643-b17981 0.0012 226.671517 -4.61185243E+004 0 0 12 (P21) n - 1
REM
REM Run started: Mon, 03 Aug 2020 17:24:42 +0100 in /lustre/scratch/uccabz1/launch_tmp/launcher_2020-08-03-15-46-41-684688
REM CASTEP 20.1 from code version af48c487+ pr-geom-scf-spinfix Tue Jun 2 15:39:59 2020 +0100
REM Functional PBE for solids (2008) Relativity Koelling-Harmon Dispersion off
REM Cut-off 300.0000 eV Grid scale 1.7500 Gmax 15.5288 1/A FBSC none
REM MP grid 3 3 3 Offset 0.000 0.000 0.000 No. kpts 10 Spacing 0.07
REM Total runtime: 2505.15 s
REM Overall efficiency: 90.3333 %
REM
REM 4Ag2Se_TETRA.cell (4020362940262d3df87d4014b41eb05e)
REM
REM compiler GCC version 4.9.2
REM options -cpp -iprefix /lustre/shared/ucl/apps/gcc/4.9.2/bin/../lib/gcc/x86_64-unknown-linux-gnu/4.9.2/ -mtune=corei7 -march=x86-64 -g -Og
REM COMMAND_LINE
REM seed 697201306 -304530206 -1698026133 1239086263 1020442948 1338602008 978840555 237021117 1863746564 -1496471960 -214463525 139353590
REM
REM Se 3|2.1|7|7|9|40:41:32(qc=5)
REM Ag 3|2.2|7|7|9|40U:50:41:42(qc=5)
REM 
CELL 1.54180    6.04148    6.17685    6.07422   90.00000   90.00000   90.22644
LATT -1
SFAC Se Ag 
Se     1  0.1768603763916  0.0103877226514  0.3321122302489 1.0
Se     1 -0.1768603763916 -0.0103877226514 -0.1678877697511 1.0
Se     1  0.2921823038324  0.3685580009230 -0.1517326316279 1.0
Se     1 -0.2921823038324 -0.3685580009230  0.3482673683721 1.0
Ag     2 -0.3499584759682 -0.4032825605040 -0.2115790643774 1.0
Ag     2  0.3499584759682  0.4032825605040  0.2884209356226 1.0
Ag     2 -0.4235489432355  0.0396259430206  0.4823162040499 1.0
Ag     2  0.4235489432355 -0.0396259430206 -0.0176837959501 1.0
Ag     2  0.0470840493102 -0.3172506739059  0.0708068244770 1.0
Ag     2 -0.0470840493102  0.3172506739059 -0.4291931755230 1.0
Ag     2 -0.2071772906466  0.2902430513560  0.1226719372295 1.0
Ag     2  0.2071772906466 -0.2902430513560 -0.3773280627705 1.0
END
