TITL 4Ag2SE-200803-160651-808183 0.0129 225.829185 -4.61185617E+004 0 0 12 (C2/c) n - 1
REM
REM Run started: Mon, 03 Aug 2020 17:28:28 +0100 in /lustre/scratch/uccabz1/launch_tmp/launcher_2020-08-03-15-06-49-948611
REM CASTEP 20.1 from code version af48c487+ pr-geom-scf-spinfix Tue Jun 2 15:39:59 2020 +0100
REM Functional PBE for solids (2008) Relativity Koelling-Harmon Dispersion off
REM Cut-off 300.0000 eV Grid scale 1.7500 Gmax 15.5288 1/A FBSC none
REM MP grid 3 4 3 Offset 0.000 0.000 0.000 No. kpts 18 Spacing 0.07
REM Total runtime: 5818.65 s
REM Overall efficiency: 86.4444 %
REM
REM 4Ag2SE.cell (6404a18c6b5dc90313b5c56acf317f23)
REM
REM compiler GCC version 4.9.2
REM options -cpp -iprefix /lustre/shared/ucl/apps/gcc/4.9.2/bin/../lib/gcc/x86_64-unknown-linux-gnu/4.9.2/ -mtune=corei7 -march=x86-64 -g -Og
REM COMMAND_LINE
REM seed 1330241291 1102733956 -1302850865 2002576740 244995445 -1747382946 -774420586 -1825498596 -2106881659 733342928 -749761273 1013054375
REM
REM Se 3|2.1|7|7|9|40:41:32(qc=5)
REM Ag 3|2.2|7|7|9|40U:50:41:42(qc=5)
REM 
CELL 1.54180    6.71667    6.68799    7.07720  119.55222   90.00000  120.14198
LATT -1
SFAC Se Ag 
Se     1  0.3444644371527  0.1079609119671 -0.3363266956657 1.0
Se     1 -0.2365035251856  0.1079609119671  0.1636733043343 1.0
Se     1  0.0971585229334 -0.3836016568411 -0.1629448118946 1.0
Se     1 -0.4807601797745 -0.3836016568411  0.3370551881054 1.0
Ag     2 -0.1401689248461 -0.3834459043994 -0.4665811922594 1.0
Ag     2 -0.2432769795533 -0.3834459043994  0.0334188077406 1.0
Ag     2  0.0039435334457  0.1091528507787  0.4678737682246 1.0
Ag     2  0.1052093173330  0.1091528507787 -0.0321262317754 1.0
Ag     2 -0.2582118567696  0.1186465744367 -0.2220804912351 1.0
Ag     2  0.3768584312063  0.1186465744367  0.2779195087649 1.0
Ag     2  0.1217418032100 -0.3954775759421  0.2215047228301 1.0
Ag     2 -0.5172193791521 -0.3954775759421 -0.2784952771699 1.0
END
