TITL 4Ag2SE-200803-160653-353e5c -0.0655 226.180660 -4.61185296E+004 0 0 12 (P21) n - 1
REM
REM Run started: Mon, 03 Aug 2020 17:18:37 +0100 in /lustre/scratch/uccabz1/launch_tmp/launcher_2020-08-03-15-06-51-158811
REM CASTEP 20.1 from code version af48c487+ pr-geom-scf-spinfix Tue Jun 2 15:39:59 2020 +0100
REM Functional PBE for solids (2008) Relativity Koelling-Harmon Dispersion off
REM Cut-off 300.0000 eV Grid scale 1.7500 Gmax 15.5288 1/A FBSC none
REM MP grid 4 2 3 Offset 0.000 0.000 0.000 No. kpts 8 Spacing 0.07
REM Total runtime: 4452.56 s
REM Overall efficiency: 84 %
REM
REM 4Ag2SE.cell (6404a18c6b5dc90313b5c56acf317f23)
REM
REM compiler GCC version 4.9.2
REM options -cpp -iprefix /lustre/shared/ucl/apps/gcc/4.9.2/bin/../lib/gcc/x86_64-unknown-linux-gnu/4.9.2/ -mtune=corei7 -march=x86-64 -g -Og
REM COMMAND_LINE
REM seed 73409698 -1620126857 1764067418 1180775863 -2101273084 1559319773 -1009063587 1194927231 1719619911 -203629286 1794817621 1177125416
REM
REM Se 3|2.1|7|7|9|40:41:32(qc=5)
REM Ag 3|2.2|7|7|9|40U:50:41:42(qc=5)
REM 
CELL 1.54180    4.03638    8.38951    6.73959   90.00000   90.00000   97.67382
LATT -1
SFAC Se Ag 
Se     1 -0.0797554900189 -0.3491571465626  0.1167403787947 1.0
Se     1  0.0797554900189  0.3491571465626 -0.3832596212052 1.0
Se     1  0.4175556236146  0.1508458770218  0.1203944859729 1.0
Se     1 -0.4175556236146 -0.1508458770218 -0.3796055140271 1.0
Ag     2 -0.0187934857273  0.3485268596392  0.2075972157640 1.0
Ag     2  0.0187934857273 -0.3485268596392 -0.2924027842360 1.0
Ag     2 -0.4747486741294  0.5373234609010  0.4104271054168 1.0
Ag     2  0.4747486741294 -0.5373234609010 -0.0895728945832 1.0
Ag     2  0.0264213326423  0.0384742178088  0.4155915696746 1.0
Ag     2 -0.0264213326423 -0.0384742178088 -0.0844084303254 1.0
Ag     2 -0.5158888184157 -0.1514468817545  0.2134896443770 1.0
Ag     2  0.5158888184157  0.1514468817545 -0.2865103556230 1.0
END
