TITL 4Ag2Se_TETRA_OPT-200811-090527-b6d486 0.0303 220.073201 -4.61184021E+004 0 0 12 (P1) n - 1
REM
REM Run started: Tue, 11 Aug 2020 10:48:11 +0100 in /lustre/scratch/uccabz1/launch_tmp/launcher_2020-08-11-08-05-24-871735
REM CASTEP 20.1 from code version af48c487+ pr-geom-scf-spinfix Tue Jun 2 15:39:59 2020 +0100
REM Functional PBE for solids (2008) Relativity Koelling-Harmon Dispersion off
REM Cut-off 300.0000 eV Grid scale 1.7500 Gmax 15.5288 1/A FBSC none
REM MP grid 3 3 2 Offset 0.000 0.000 0.000 No. kpts 9 Spacing 0.07
REM Total runtime: 6193.89 s
REM Overall efficiency: 92.5385 %
REM
REM 4Ag2Se_TETRA_OPT.cell (db6eaae92e6a5f18c152ebab86a92a61)
REM
REM compiler GCC version 4.9.2
REM options -cpp -iprefix /lustre/shared/ucl/apps/gcc/4.9.2/bin/../lib/gcc/x86_64-unknown-linux-gnu/4.9.2/ -mtune=corei7 -march=x86-64 -g -Og
REM COMMAND_LINE
REM seed -1792116272 -754043096 -534679472 -482259853 105348189 -292904253 -1826534879 1458513837 -1088078911 -989092322 -1487563481 -266971151
REM
REM Se 3|2.1|7|7|9|40:41:32(qc=5)
REM Ag 3|2.2|7|7|9|40U:50:41:42(qc=5)
REM 
CELL 1.54180    4.86151    6.31585    7.26975   95.32475   81.98040   90.37840
LATT -1
SFAC Se Ag 
Se     1 -0.2993798530967  0.2617473981586  0.3679260952967 1.0
Se     1  0.0650860935848  0.3947043955832 -0.0422485260839 1.0
Se     1  0.0294742775611 -0.2384859992175 -0.4338402066622 1.0
Se     1 -0.4414653628474 -0.2275447824173 -0.0374422310473 1.0
Ag     2  0.4728958120599 -0.5259054871037 -0.3260739681510 1.0
Ag     2  0.0136153394176  0.2094085712103 -0.3720381923418 1.0
Ag     2  0.2526386242879  0.4502064626383  0.2984553577672 1.0
Ag     2 -0.2198990473113 -0.2975352924242  0.2616191620589 1.0
Ag     2 -0.4457487326750  0.2091859806776 -0.0283280723089 1.0
Ag     2  0.2823596287224 -0.0389955188642  0.2821747293734 1.0
Ag     2  0.5115305834086 -0.0412928314433 -0.3805639724812 1.0
Ag     2  0.0512679368883 -0.0349075967978 -0.0530435754199 1.0
END
