TITL 4Ag2SE-200803-155114-cf0620 -0.2798 234.553563 -4.61180574E+004 0 0 12 (C2) n - 1
REM
REM Run started: Mon, 03 Aug 2020 17:44:12 +0100 in /lustre/scratch/uccabz1/launch_tmp/launcher_2020-08-03-14-51-12-461820
REM CASTEP 20.1 from code version af48c487+ pr-geom-scf-spinfix Tue Jun 2 15:39:59 2020 +0100
REM Functional PBE for solids (2008) Relativity Koelling-Harmon Dispersion off
REM Cut-off 300.0000 eV Grid scale 1.7500 Gmax 15.5288 1/A FBSC none
REM MP grid 4 4 2 Offset 0.000 0.000 0.000 No. kpts 10 Spacing 0.07
REM Total runtime: 7548.36 s
REM Overall efficiency: 87.6667 %
REM
REM 4Ag2SE.cell (6404a18c6b5dc90313b5c56acf317f23)
REM
REM compiler GCC version 4.9.2
REM options -cpp -iprefix /lustre/shared/ucl/apps/gcc/4.9.2/bin/../lib/gcc/x86_64-unknown-linux-gnu/4.9.2/ -mtune=corei7 -march=x86-64 -g -Og
REM COMMAND_LINE
REM seed -1235285126 -459051024 -881622480 -623809281 848162819 1119398446 1886516319 -1255606557 -2137845253 874099469 -722274382 -397697543
REM
REM Se 3|2.1|7|7|9|40:41:32(qc=5)
REM Ag 3|2.2|7|7|9|40U:50:41:42(qc=5)
REM 
CELL 1.54180    4.38108    4.38108   14.21153   99.47602   99.47602  115.34131
LATT -1
SFAC Se Ag 
Se     1  0.5223964161054  0.1960153065560  0.1206857871932 1.0
Se     1 -0.1960153065560 -0.5223964161054 -0.1206857871932 1.0
Se     1  0.0136221751199  0.2084742629876  0.3774970974313 1.0
Se     1 -0.2084742629876 -0.0136221751199 -0.3774970974313 1.0
Ag     2 -0.4708640400628 -0.1363732777477 -0.0589852367988 1.0
Ag     2  0.1363732777477  0.4708640400628  0.0589852367988 1.0
Ag     2  0.1095753346867  0.0458908414681 -0.1891144856340 1.0
Ag     2 -0.0458908414681 -0.1095753346867  0.1891144856340 1.0
Ag     2 -0.9845190337713 -0.4213793823907 -0.4481333733096 1.0
Ag     2 -0.5786206176093 -0.0154809662287  0.4481333733096 1.0
Ag     2 -0.6036201855194 -0.4017422843148 -0.2731840611997 1.0
Ag     2 -0.5982577156852 -0.3963798144806  0.2731840611997 1.0
END
