TITL 4Ag2SE-200803-155103-b045d9 -0.0861 236.913662 -4.61180877E+004 0 0 12 (Pc) n - 1
REM
REM Run started: Mon, 03 Aug 2020 17:32:46 +0100 in /lustre/scratch/uccabz1/launch_tmp/launcher_2020-08-03-14-51-01-836720
REM CASTEP 20.1 from code version af48c487+ pr-geom-scf-spinfix Tue Jun 2 15:39:59 2020 +0100
REM Functional PBE for solids (2008) Relativity Koelling-Harmon Dispersion off
REM Cut-off 300.0000 eV Grid scale 1.7500 Gmax 15.5288 1/A FBSC none
REM MP grid 4 3 3 Offset 0.000 0.000 0.000 No. kpts 12 Spacing 0.07
REM Total runtime: 6912.64 s
REM Overall efficiency: 91.0833 %
REM
REM 4Ag2SE.cell (6404a18c6b5dc90313b5c56acf317f23)
REM
REM compiler GCC version 4.9.2
REM options -cpp -iprefix /lustre/shared/ucl/apps/gcc/4.9.2/bin/../lib/gcc/x86_64-unknown-linux-gnu/4.9.2/ -mtune=corei7 -march=x86-64 -g -Og
REM COMMAND_LINE
REM seed 385732251 199329482 320492073 -313033136 -1618102522 214743661 685512226 1832177185 506108761 -250027151 110895018 1780922835
REM
REM Se 3|2.1|7|7|9|40:41:32(qc=5)
REM Ag 3|2.2|7|7|9|40U:50:41:42(qc=5)
REM 
CELL 1.54180    5.52888    6.48554    7.85206   90.00000  122.70738   90.00000
LATT -1
SFAC Se Ag 
Se     1  0.5267074309395  0.3046761091663  0.0901725122794 1.0
Se     1  0.0267074309395 -0.3046761091663  0.0901725122794 1.0
Se     1  0.0442046736793 -0.1897262520472 -0.3887210683179 1.0
Se     1 -0.4557953263207  0.1897262520472 -0.3887210683179 1.0
Ag     2 -0.0256908451484  0.4530952572516 -0.2027911584013 1.0
Ag     2 -0.5256908451484 -0.4530952572516 -0.2027911584013 1.0
Ag     2 -0.3452686722833 -0.4665068640548  0.3905700048234 1.0
Ag     2  0.1547313277167  0.4665068640548  0.3905700048234 1.0
Ag     2 -0.0345556557087  0.0580183118782  0.3206149178247 1.0
Ag     2  0.4654443442913 -0.0580183118782  0.3206149178247 1.0
Ag     2  0.0968621685217  0.0433186022057 -0.0819606082083 1.0
Ag     2 -0.4031378314783 -0.0433186022057 -0.0819606082083 1.0
END
