TITL 4Ag2Se_TETRA-200803-165816-2feda1 -0.7356 234.271919 -4.61180631E+004 0 0 12 (R3) n - 1
REM
REM Run started: Mon, 03 Aug 2020 17:19:58 +0100 in /lustre/scratch/uccabz1/launch_tmp/launcher_2020-08-03-15-58-14-635331
REM CASTEP 20.1 from code version af48c487+ pr-geom-scf-spinfix Tue Jun 2 15:39:59 2020 +0100
REM Functional PBE for solids (2008) Relativity Koelling-Harmon Dispersion off
REM Cut-off 300.0000 eV Grid scale 1.7500 Gmax 15.5288 1/A FBSC none
REM MP grid 3 3 3 Offset 0.000 0.000 0.000 No. kpts 6 Spacing 0.07
REM Total runtime: 1435.07 s
REM Overall efficiency: 63.8333 %
REM
REM 4Ag2Se_TETRA.cell (4020362940262d3df87d4014b41eb05e)
REM
REM compiler GCC version 4.9.2
REM options -cpp -iprefix /lustre/shared/ucl/apps/gcc/4.9.2/bin/../lib/gcc/x86_64-unknown-linux-gnu/4.9.2/ -mtune=corei7 -march=x86-64 -g -Og
REM COMMAND_LINE
REM seed -335517749 128150740 1579306776 867463041 781267297 -1918828832 -857697735 1389222312 -372962324 -1888401547 565044864 1633054111
REM
REM Se 3|2.1|7|7|9|40:41:32(qc=5)
REM Ag 3|2.2|7|7|9|40U:50:41:42(qc=5)
REM 
CELL 1.54180    6.16463    6.16463    6.16463   90.02944   90.02944   90.02944
LATT -1
SFAC Se Ag 
Se     1 -0.1595319975315 -0.0840121555706  0.3817868997317 1.0
Se     1 -0.0840121555706  0.3817868997317 -0.1595319975315 1.0
Se     1  0.3817868997317 -0.1595319975315 -0.0840121555706 1.0
Se     1  0.3428181184765  0.3428181184765  0.3428181184765 1.0
Ag     2 -0.3806610083694  0.1081025049438 -0.2917860682451 1.0
Ag     2  0.1081025049438 -0.2917860682451 -0.3806610083694 1.0
Ag     2 -0.2917860682451 -0.3806610083694  0.1081025049438 1.0
Ag     2 -0.0774573491044  0.3417603923865  0.3895723773152 1.0
Ag     2  0.3417603923865  0.3895723773152 -0.0774573491044 1.0
Ag     2  0.3895723773152 -0.0774573491044  0.3417603923865 1.0
Ag     2 -0.4119446784945 -0.4119446784945 -0.4119446784945 1.0
Ag     2  0.0001857644618  0.0001857644618  0.0001857644618 1.0
END
