TITL 4Ag2Se_TETRA-200803-164512-fe7ba1 0.0042 226.652263 -4.61180279E+004 0 0 12 (P2/c) n - 1
REM
REM Run started: Mon, 03 Aug 2020 17:08:56 +0100 in /lustre/scratch/uccabz1/launch_tmp/launcher_2020-08-03-15-45-10-811230
REM CASTEP 20.1 from code version af48c487+ pr-geom-scf-spinfix Tue Jun 2 15:39:59 2020 +0100
REM Functional PBE for solids (2008) Relativity Koelling-Harmon Dispersion off
REM Cut-off 300.0000 eV Grid scale 1.7500 Gmax 15.5288 1/A FBSC none
REM MP grid 2 3 3 Offset 0.000 0.000 0.000 No. kpts 6 Spacing 0.07
REM Total runtime: 1564.49 s
REM Overall efficiency: 66.6667 %
REM
REM 4Ag2Se_TETRA.cell (4020362940262d3df87d4014b41eb05e)
REM
REM compiler GCC version 4.9.2
REM options -cpp -iprefix /lustre/shared/ucl/apps/gcc/4.9.2/bin/../lib/gcc/x86_64-unknown-linux-gnu/4.9.2/ -mtune=corei7 -march=x86-64 -g -Og
REM COMMAND_LINE
REM seed -2119574371 1345102816 1376491877 -1214852082 1566515929 1040010883 -188719903 1502331846 -856855113 -432842731 -921937697 302774596
REM
REM Se 3|2.1|7|7|9|40:41:32(qc=5)
REM Ag 3|2.2|7|7|9|40U:50:41:42(qc=5)
REM 
CELL 1.54180    7.44579    6.21845    4.89743   90.00000   91.74305   90.00000
LATT -1
SFAC Se Ag 
Se     1  0.0407223944336  0.2855324445938  0.2367144818294 1.0
Se     1  0.4592776055664  0.2855324445938 -0.2367144818294 1.0
Se     1 -0.0407223944336 -0.2855324445938 -0.2367144818294 1.0
Se     1 -0.4592776055664 -0.2855324445938  0.2367144818294 1.0
Ag     2  0.3660217307174  0.0889397739182  0.2787366159281 1.0
Ag     2  0.1339782692826  0.0889397739182 -0.2787366159281 1.0
Ag     2 -0.3660217307174 -0.0889397739182 -0.2787366159281 1.0
Ag     2 -0.1339782692826 -0.0889397739182  0.2787366159281 1.0
Ag     2  0.1805930137004 -0.3227242379733  0.2475400754304 1.0
Ag     2  0.3194069862996 -0.3227242379733 -0.2475400754304 1.0
Ag     2 -0.1805930137004  0.3227242379733 -0.2475400754304 1.0
Ag     2 -0.3194069862996  0.3227242379733  0.2475400754304 1.0
END
