TITL 4Ag2Se_TETRA-200803-164850-f93970 -0.0296 242.735882 -4.61178712E+004 0 0 12 (R3) n - 1
REM
REM Run started: Mon, 03 Aug 2020 17:12:30 +0100 in /lustre/scratch/uccabz1/launch_tmp/launcher_2020-08-03-15-48-48-727017
REM CASTEP 20.1 from code version af48c487+ pr-geom-scf-spinfix Tue Jun 2 15:39:59 2020 +0100
REM Functional PBE for solids (2008) Relativity Koelling-Harmon Dispersion off
REM Cut-off 300.0000 eV Grid scale 1.7500 Gmax 15.5288 1/A FBSC none
REM MP grid 3 3 3 Offset 0.000 0.000 0.000 No. kpts 6 Spacing 0.07
REM Total runtime: 1559.87 s
REM Overall efficiency: 64.8333 %
REM
REM 4Ag2Se_TETRA.cell (4020362940262d3df87d4014b41eb05e)
REM
REM compiler GCC version 4.9.2
REM options -cpp -iprefix /lustre/shared/ucl/apps/gcc/4.9.2/bin/../lib/gcc/x86_64-unknown-linux-gnu/4.9.2/ -mtune=corei7 -march=x86-64 -g -Og
REM COMMAND_LINE
REM seed 1694429804 -1323574956 -1789162616 -562540910 653978515 -993221996 1813103052 1699558173 -303510432 1737693153 2005941010 -1904250588
REM
REM Se 3|2.1|7|7|9|40:41:32(qc=5)
REM Ag 3|2.2|7|7|9|40U:50:41:42(qc=5)
REM 
CELL 1.54180    6.23799    6.23799    6.23799   90.06562   90.06562   90.06562
LATT -1
SFAC Se Ag 
Se     1  0.0428357190887 -0.4277867228481 -0.4819192413365 1.0
Se     1 -0.4819192413365  0.0428357190887 -0.4277867228481 1.0
Se     1 -0.4277867228481 -0.4819192413365  0.0428357190887 1.0
Se     1  0.0384163227656  0.0384163227656  0.0384163227656 1.0
Ag     2 -0.2713838465762 -0.1574045379612  0.2470494852355 1.0
Ag     2  0.2470494852355 -0.2713838465762 -0.1574045379612 1.0
Ag     2 -0.1574045379612  0.2470494852355 -0.2713838465762 1.0
Ag     2  0.4491965180251  0.1178832014084 -0.0095373372153 1.0
Ag     2 -0.0095373372153  0.4491965180251  0.1178832014084 1.0
Ag     2  0.1178832014084 -0.0095373372153  0.4491965180251 1.0
Ag     2 -0.3355216546670 -0.3355216546670 -0.3355216546670 1.0
Ag     2  0.3728750940810  0.3728750940810  0.3728750940810 1.0
END
