TITL 4Ag2Se_TETRA-200803-163057-444dd5 -0.0064 229.328835 -4.61179291E+004 0 0 12 (P-1) n - 1
REM
REM Run started: Mon, 03 Aug 2020 17:17:35 +0100 in /lustre/scratch/uccabz1/launch_tmp/launcher_2020-08-03-15-30-55-761110
REM CASTEP 20.1 from code version af48c487+ pr-geom-scf-spinfix Tue Jun 2 15:39:59 2020 +0100
REM Functional PBE for solids (2008) Relativity Koelling-Harmon Dispersion off
REM Cut-off 300.0000 eV Grid scale 1.7500 Gmax 15.5288 1/A FBSC none
REM MP grid 2 2 4 Offset 0.000 0.000 0.000 No. kpts 8 Spacing 0.07
REM Total runtime: 3083.85 s
REM Overall efficiency: 91 %
REM
REM 4Ag2Se_TETRA.cell (4020362940262d3df87d4014b41eb05e)
REM
REM compiler GCC version 4.9.2
REM options -cpp -iprefix /lustre/shared/ucl/apps/gcc/4.9.2/bin/../lib/gcc/x86_64-unknown-linux-gnu/4.9.2/ -mtune=corei7 -march=x86-64 -g -Og
REM COMMAND_LINE
REM seed -462099642 829666611 299173062 517536846 156874534 -1932633738 -117090262 -1049728546 -2080826034 -1957688021 -957485714 1833016796
REM
REM Se 3|2.1|7|7|9|40:41:32(qc=5)
REM Ag 3|2.2|7|7|9|40U:50:41:42(qc=5)
REM 
CELL 1.54180    7.60259    7.44708    4.05265   88.94193   91.40719   90.62031
LATT -1
SFAC Se Ag 
Se     1  0.4330115069298  0.2517017654770  0.3800897747400 1.0
Se     1 -0.4330115069298 -0.2517017654770 -0.3800897747400 1.0
Se     1  0.0665669500087 -0.2527747322809 -0.1267124670622 1.0
Se     1 -0.0665669500087  0.2527747322809  0.1267124670622 1.0
Ag     2  0.1588164521011  0.4382537454690 -0.4057906888917 1.0
Ag     2 -0.1588164521011 -0.4382537454690  0.4057906888917 1.0
Ag     2  0.3574505445869 -0.4208428389665  0.1055706524898 1.0
Ag     2 -0.3574505445869  0.4208428389665 -0.1055706524898 1.0
Ag     2  0.3258137901581 -0.0755330432316  0.2332237420151 1.0
Ag     2 -0.3258137901581  0.0755330432316 -0.2332237420151 1.0
Ag     2 -0.1507861833063 -0.0865030985206  0.2823390341498 1.0
Ag     2  0.1507861833063  0.0865030985206 -0.2823390341498 1.0
END
