TITL 4Ag2SE-200803-160659-0fd41e -0.0157 223.570106 -4.61185143E+004 0 0 12 (P2/c) n - 1
REM
REM Run started: Mon, 03 Aug 2020 16:40:59 +0100 in /lustre/scratch/uccabz1/launch_tmp/launcher_2020-08-03-15-06-57-889175
REM CASTEP 20.1 from code version af48c487+ pr-geom-scf-spinfix Tue Jun 2 15:39:59 2020 +0100
REM Functional PBE for solids (2008) Relativity Koelling-Harmon Dispersion off
REM Cut-off 300.0000 eV Grid scale 1.7500 Gmax 15.5288 1/A FBSC none
REM MP grid 4 3 3 Offset 0.000 0.000 0.000 No. kpts 12 Spacing 0.07
REM Total runtime: 2365.66 s
REM Overall efficiency: 84.375 %
REM
REM 4Ag2SE.cell (6404a18c6b5dc90313b5c56acf317f23)
REM
REM compiler GCC version 4.9.2
REM options -cpp -iprefix /lustre/shared/ucl/apps/gcc/4.9.2/bin/../lib/gcc/x86_64-unknown-linux-gnu/4.9.2/ -mtune=corei7 -march=x86-64 -g -Og
REM COMMAND_LINE
REM seed 108215574 818354108 1422650545 -1569854738 1874374734 -345967932 -1804869712 -1576577328 1178579702 235485566 -1327683394 1180374351
REM
REM Se 3|2.1|7|7|9|40:41:32(qc=5)
REM Ag 3|2.2|7|7|9|40U:50:41:42(qc=5)
REM 
CELL 1.54180    4.72775    6.94459    6.80957   90.00000   90.33395   90.00000
LATT -1
SFAC Se Ag 
Se     1  0.2372580082251 -0.2081456286457 -0.5531350124732 1.0
Se     1 -0.2372580082251 -0.2081456286457  0.0531350124732 1.0
Se     1 -0.2372580082251  0.2081456286457  0.5531350124732 1.0
Se     1  0.2372580082251  0.2081456286457 -0.0531350124732 1.0
Ag     2 -0.2545795590561 -0.1747795279712 -0.3542591511360 1.0
Ag     2  0.2545795590561 -0.1747795279712 -0.1457408488640 1.0
Ag     2  0.2545795590561  0.1747795279712  0.3542591511360 1.0
Ag     2 -0.2545795590561  0.1747795279712  0.1457408488640 1.0
Ag     2  0.2525343902877 -0.4641484511737  0.1371918716923 1.0
Ag     2 -0.2525343902877 -0.4641484511737  0.3628081283077 1.0
Ag     2 -0.2525343902877  0.4641484511737 -0.1371918716923 1.0
Ag     2  0.2525343902877  0.4641484511737 -0.3628081283077 1.0
END
