TITL 4Ag2Se_TETRA-200803-164729-f6a198 -0.0056 242.402410 -4.61175602E+004 0 0 12 (R3) n - 1
REM
REM Run started: Mon, 03 Aug 2020 17:11:48 +0100 in /lustre/scratch/uccabz1/launch_tmp/launcher_2020-08-03-15-47-28-093911
REM CASTEP 20.1 from code version af48c487+ pr-geom-scf-spinfix Tue Jun 2 15:39:59 2020 +0100
REM Functional PBE for solids (2008) Relativity Koelling-Harmon Dispersion off
REM Cut-off 300.0000 eV Grid scale 1.7500 Gmax 15.5288 1/A FBSC none
REM MP grid 3 3 3 Offset 0.000 0.000 0.000 No. kpts 6 Spacing 0.07
REM Total runtime: 1610.5 s
REM Overall efficiency: 64.8333 %
REM
REM 4Ag2Se_TETRA.cell (4020362940262d3df87d4014b41eb05e)
REM
REM compiler GCC version 4.9.2
REM options -cpp -iprefix /lustre/shared/ucl/apps/gcc/4.9.2/bin/../lib/gcc/x86_64-unknown-linux-gnu/4.9.2/ -mtune=corei7 -march=x86-64 -g -Og
REM COMMAND_LINE
REM seed 335326253 124662567 1554106060 1440708413 -1738589950 -691130247 -469374635 -976695116 341227491 2079047910 -1442546546 426609452
REM
REM Se 3|2.1|7|7|9|40:41:32(qc=5)
REM Ag 3|2.2|7|7|9|40U:50:41:42(qc=5)
REM 
CELL 1.54180    6.23514    6.23514    6.23514   89.93500   89.93500   89.93500
LATT -1
SFAC Se Ag 
Se     1  0.2588871204116  0.3489268396452 -0.2024564890691 1.0
Se     1 -0.2024564890691  0.2588871204116  0.3489268396452 1.0
Se     1  0.3489268396452 -0.2024564890691  0.2588871204116 1.0
Se     1 -0.1438594253568 -0.1438594253568 -0.1438594253568 1.0
Ag     2 -0.0467035437153 -0.4414213394283 -0.4148585859536 1.0
Ag     2 -0.4148585859536 -0.0467035437153 -0.4414213394283 1.0
Ag     2 -0.4414213394283 -0.4148585859536 -0.0467035437153 1.0
Ag     2  0.2730418247822 -0.0554188482281 -0.1347119472249 1.0
Ag     2 -0.1347119472249  0.2730418247822 -0.0554188482281 1.0
Ag     2 -0.0554188482281 -0.1347119472249  0.2730418247822 1.0
Ag     2  0.2425108317822  0.2425108317822  0.2425108317822 1.0
Ag     2 -0.4886503376453 -0.4886503376453 -0.4886503376453 1.0
END
