TITL 4Ag2Se_TETRA-200803-162953-e329fd -0.0028 264.989754 -4.61166966E+004 0 0 12 (P-1) n - 1
REM
REM Run started: Mon, 03 Aug 2020 17:18:12 +0100 in /lustre/scratch/uccabz1/launch_tmp/launcher_2020-08-03-15-29-51-919457
REM CASTEP 20.1 from code version af48c487+ pr-geom-scf-spinfix Tue Jun 2 15:39:59 2020 +0100
REM Functional PBE for solids (2008) Relativity Koelling-Harmon Dispersion off
REM Cut-off 300.0000 eV Grid scale 1.7500 Gmax 15.5288 1/A FBSC none
REM MP grid 2 2 4 Offset 0.000 0.000 0.000 No. kpts 8 Spacing 0.07
REM Total runtime: 3197.76 s
REM Overall efficiency: 91.75 %
REM
REM 4Ag2Se_TETRA.cell (4020362940262d3df87d4014b41eb05e)
REM
REM compiler GCC version 4.9.2
REM options -cpp -iprefix /lustre/shared/ucl/apps/gcc/4.9.2/bin/../lib/gcc/x86_64-unknown-linux-gnu/4.9.2/ -mtune=corei7 -march=x86-64 -g -Og
REM COMMAND_LINE
REM seed 215469299 -2012992245 -1435381604 -419720828 -1267976823 -891709914 -1720833033 643114034 -708924975 1305559679 -2064390212 -649632425
REM
REM Se 3|2.1|7|7|9|40:41:32(qc=5)
REM Ag 3|2.2|7|7|9|40U:50:41:42(qc=5)
REM 
CELL 1.54180    7.62360    7.82038    4.44973   92.14357   88.57548   90.95594
LATT -1
SFAC Se Ag 
Se     1  0.1771327365786 -0.1631463590328  0.1573909796904 1.0
Se     1 -0.1771327365786  0.1631463590328 -0.1573909796904 1.0
Se     1 -0.2814862252543 -0.3383314006281 -0.2512113736819 1.0
Se     1  0.2814862252543  0.3383314006281  0.2512113736819 1.0
Ag     2  0.4014502004134  0.4765375032236 -0.2496624708548 1.0
Ag     2 -0.4014502004134 -0.4765375032236  0.2496624708548 1.0
Ag     2  0.1398667923165  0.0965635482444 -0.4110587356085 1.0
Ag     2 -0.1398667923165 -0.0965635482444  0.4110587356085 1.0
Ag     2  0.4552469341890  0.1421000649732 -0.1416243178623 1.0
Ag     2 -0.4552469341890 -0.1421000649732  0.1416243178623 1.0
Ag     2 -0.3519503861939  0.1873520075626  0.3572028646772 1.0
Ag     2  0.3519503861939 -0.1873520075626 -0.3572028646772 1.0
END
