TITL 4Ag2Se_TETRA_OPT-200811-103647-ab0f8e 0.3186 234.511382 -4.61184398E+004 0 0 12 (P1) n - 1
REM
REM Run started: Tue, 11 Aug 2020 12:45:27 +0100 in /lustre/scratch/uccabz1/launch_tmp/launcher_2020-08-11-09-36-46-066522
REM CASTEP 20.1 from code version af48c487+ pr-geom-scf-spinfix Tue Jun 2 15:39:59 2020 +0100
REM Functional PBE for solids (2008) Relativity Koelling-Harmon Dispersion off
REM Cut-off 300.0000 eV Grid scale 1.7500 Gmax 15.5288 1/A FBSC none
REM MP grid 4 2 2 Offset 0.000 0.000 0.000 No. kpts 8 Spacing 0.07
REM Total runtime: 8514.44 s
REM Overall efficiency: 89.5833 %
REM
REM 4Ag2Se_TETRA_OPT.cell (db6eaae92e6a5f18c152ebab86a92a61)
REM
REM compiler GCC version 4.9.2
REM options -cpp -iprefix /lustre/shared/ucl/apps/gcc/4.9.2/bin/../lib/gcc/x86_64-unknown-linux-gnu/4.9.2/ -mtune=corei7 -march=x86-64 -g -Og
REM COMMAND_LINE
REM seed 1613670950 23482874 829197645 -107534623 -941582518 28913750 -1379991228 2049534187 1707490367 -764547340 -845490195 -1080503441
REM
REM Se 3|2.1|7|7|9|40:41:32(qc=5)
REM Ag 3|2.2|7|7|9|40U:50:41:42(qc=5)
REM 
CELL 1.54180    4.38615    7.52494    7.17912   93.23275   96.10126   85.19860
LATT -1
SFAC Se Ag 
Se     1  0.3415912704281  0.3007911524731 -0.2315372356390 1.0
Se     1 -0.0922436234862 -0.1968929179799 -0.4330852726985 1.0
Se     1  0.2483180540991 -0.0346569983214  0.0992927036076 1.0
Se     1 -0.1200275475976  0.4859458521424  0.1518592205098 1.0
Ag     2  0.2551701748240  0.3364563102736  0.3953093368847 1.0
Ag     2 -0.3629588741750 -0.0695394903125 -0.1475704588551 1.0
Ag     2  0.1181029281767 -0.3513318750691 -0.1067861625073 1.0
Ag     2 -0.2798062000816  0.1667273200296  0.1734596248260 1.0
Ag     2 -0.1666760679448  0.1945393482680 -0.4013711311033 1.0
Ag     2  0.3596246907978 -0.0186449131574 -0.5257267973889 1.0
Ag     2 -0.6035108252407 -0.3404538719937  0.2694619695734 1.0
Ag     2  0.5823257202002 -0.4389734163529 -0.3458924972096 1.0
END
