TITL 4Ag2Se_TETRA_OPT-200811-104331-c472c4 -0.0427 224.380048 -4.61183900E+004 0 0 12 (P21) n - 1
REM
REM Run started: Tue, 11 Aug 2020 11:34:00 +0100 in /lustre/scratch/uccabz1/launch_tmp/launcher_2020-08-11-09-43-28-997606
REM CASTEP 20.1 from code version af48c487+ pr-geom-scf-spinfix Tue Jun 2 15:39:59 2020 +0100
REM Functional PBE for solids (2008) Relativity Koelling-Harmon Dispersion off
REM Cut-off 300.0000 eV Grid scale 1.7500 Gmax 15.5288 1/A FBSC none
REM MP grid 3 3 3 Offset 0.000 0.000 0.000 No. kpts 10 Spacing 0.07
REM Total runtime: 3140.18 s
REM Overall efficiency: 82.3 %
REM
REM 4Ag2Se_TETRA_OPT.cell (db6eaae92e6a5f18c152ebab86a92a61)
REM
REM compiler GCC version 4.9.2
REM options -cpp -iprefix /lustre/shared/ucl/apps/gcc/4.9.2/bin/../lib/gcc/x86_64-unknown-linux-gnu/4.9.2/ -mtune=corei7 -march=x86-64 -g -Og
REM COMMAND_LINE
REM seed -1717043619 1025372218 146691794 -2000688499 1209105427 1197690818 1045354408 1413172990 849985627 783292153 -1428671590 1717097652
REM
REM Se 3|2.1|7|7|9|40:41:32(qc=5)
REM Ag 3|2.2|7|7|9|40U:50:41:42(qc=5)
REM 
CELL 1.54180    6.02699    7.08061    5.32632   90.00000   99.19317   90.00000
LATT -1
SFAC Se Ag 
Se     1 -0.3173909902985 -0.2001380070506 -0.4974360421069 1.0
Se     1  0.3173909902985  0.2998619929494  0.4974360421069 1.0
Se     1 -0.2438949015776  0.4228251445504  0.0521832234650 1.0
Se     1  0.2438949015776 -0.0771748554496 -0.0521832234650 1.0
Ag     2  0.0747276461268 -0.0145766034007  0.4373713549389 1.0
Ag     2 -0.0747276461268  0.4854233965993 -0.4373713549389 1.0
Ag     2 -0.4011669550981  0.1114940534565  0.2087593614812 1.0
Ag     2  0.4011669550981 -0.3885059465435 -0.2087593614812 1.0
Ag     2 -0.2464371305342  0.1390170810909 -0.2693943565973 1.0
Ag     2  0.2464371305342 -0.3609829189091  0.2693943565973 1.0
Ag     2 -0.1761227666723 -0.1981694686465  0.0214007434501 1.0
Ag     2  0.1761227666723  0.3018305313535 -0.0214007434501 1.0
END
