TITL 4Ag2SE-200803-154818-d98aac 0.0129 214.199017 -4.61183206E+004 0 0 12 (Pnma) n - 1
REM
REM Run started: Mon, 03 Aug 2020 16:24:07 +0100 in /lustre/scratch/uccabz1/launch_tmp/launcher_2020-08-03-14-48-16-678798
REM CASTEP 20.1 from code version af48c487+ pr-geom-scf-spinfix Tue Jun 2 15:39:59 2020 +0100
REM Functional PBE for solids (2008) Relativity Koelling-Harmon Dispersion off
REM Cut-off 300.0000 eV Grid scale 1.7500 Gmax 15.5288 1/A FBSC none
REM MP grid 4 2 2 Offset 0.000 0.000 0.000 No. kpts 4 Spacing 0.07
REM Total runtime: 2163.84 s
REM Overall efficiency: 73 %
REM
REM 4Ag2SE.cell (6404a18c6b5dc90313b5c56acf317f23)
REM
REM compiler GCC version 4.9.2
REM options -cpp -iprefix /lustre/shared/ucl/apps/gcc/4.9.2/bin/../lib/gcc/x86_64-unknown-linux-gnu/4.9.2/ -mtune=corei7 -march=x86-64 -g -Og
REM COMMAND_LINE
REM seed -1220366849 1951996307 1630327655 -416793005 58507624 -915195756 826068201 -2076091964 -1896735363 -477040445 -1471800122 -736119981
REM
REM Se 3|2.1|7|7|9|40:41:32(qc=5)
REM Ag 3|2.2|7|7|9|40U:50:41:42(qc=5)
REM 
CELL 1.54180    3.62739    7.23637    8.16024   90.00000   90.00000   90.03121
LATT -1
SFAC Se Ag 
Se     1  0.4165551123161 -0.5448007304733 -0.4940664094539 1.0
Se     1  0.4165551123161 -0.0448007304733  0.4940664094539 1.0
Se     1 -0.0828726057315  0.1556569008766 -0.0027043287840 1.0
Se     1 -0.0828726057315 -0.3443430991234  0.0027043287840 1.0
Ag     2  0.4187978923881 -0.0686166801524 -0.1775408446031 1.0
Ag     2  0.4187978923881  0.4313833198476  0.1775408446031 1.0
Ag     2 -0.0845785454835  0.1921513372550 -0.3374737735025 1.0
Ag     2 -0.0845785454835 -0.3078486627450  0.3374737735025 1.0
Ag     2 -0.0809364683982  0.1806027111230  0.3242110720306 1.0
Ag     2 -0.0809364683982 -0.3193972888770 -0.3242110720306 1.0
Ag     2  0.4142881149089  0.4157427613712 -0.1608423848512 1.0
Ag     2  0.4142881149089 -0.0842572386288  0.1608423848512 1.0
END
