TITL 4Ag2SE-200803-160741-af37cf -0.0070 245.910424 -4.61156785E+004 0 0 12 (Pmma) n - 1
REM
REM Run started: Mon, 03 Aug 2020 16:11:43 +0100 in /lustre/scratch/uccabz1/launch_tmp/launcher_2020-08-03-15-07-40-189430
REM CASTEP 20.1 from code version af48c487+ pr-geom-scf-spinfix Tue Jun 2 15:39:59 2020 +0100
REM Functional PBE for solids (2008) Relativity Koelling-Harmon Dispersion off
REM Cut-off 300.0000 eV Grid scale 1.7500 Gmax 15.5288 1/A FBSC none
REM MP grid 4 2 2 Offset 0.000 0.000 0.000 No. kpts 2 Spacing 0.07
REM Total runtime: 255.46 s
REM Overall efficiency: 54.6 %
REM
REM 4Ag2SE.cell (6404a18c6b5dc90313b5c56acf317f23)
REM
REM compiler GCC version 4.9.2
REM options -cpp -iprefix /lustre/shared/ucl/apps/gcc/4.9.2/bin/../lib/gcc/x86_64-unknown-linux-gnu/4.9.2/ -mtune=corei7 -march=x86-64 -g -Og
REM COMMAND_LINE
REM seed 1650263320 1056935448 -1574156002 602116471 1883114606 862045670 1851647995 -1776065372 -284131663 -524447090 722511136 -512715704
REM
REM Se 3|2.1|7|7|9|40:41:32(qc=5)
REM Ag 3|2.2|7|7|9|40U:50:41:42(qc=5)
REM 
CELL 1.54180    3.70985    7.79199    8.50693   90.00000   90.00000   90.00000
LATT -1
SFAC Se Ag 
Se     1 -0.2500000000000  0.1620068653315 -0.1828968916416 1.0
Se     1  0.2500000000000  0.1620068653315  0.1828968916416 1.0
Se     1 -0.2500000000000 -0.3379931346685 -0.1828968916416 1.0
Se     1  0.2500000000000 -0.3379931346685  0.1828968916416 1.0
Ag     2  0.2500000000000 -0.0888971615965  0.3861482842901 1.0
Ag     2 -0.2500000000000 -0.0888971615965 -0.3861482842901 1.0
Ag     2  0.2500000000000  0.4111028384035  0.3861482842901 1.0
Ag     2 -0.2500000000000  0.4111028384035 -0.3861482842901 1.0
Ag     2 -0.2500000000000 -0.0882119037351  0.1250168651495 1.0
Ag     2  0.2500000000000 -0.0882119037351 -0.1250168651495 1.0
Ag     2 -0.2500000000000  0.4117880962649  0.1250168651495 1.0
Ag     2  0.2500000000000  0.4117880962649 -0.1250168651495 1.0
END
