TITL 4Ag2Se_TETRA-200803-165544-d7c06a -0.0281 229.849636 -4.61174202E+004 0 0 12 (P21) n - 1
REM
REM Run started: Mon, 03 Aug 2020 17:18:18 +0100 in /lustre/scratch/uccabz1/launch_tmp/launcher_2020-08-03-15-55-42-560681
REM CASTEP 20.1 from code version af48c487+ pr-geom-scf-spinfix Tue Jun 2 15:39:59 2020 +0100
REM Functional PBE for solids (2008) Relativity Koelling-Harmon Dispersion off
REM Cut-off 300.0000 eV Grid scale 1.7500 Gmax 15.5288 1/A FBSC none
REM MP grid 3 3 2 Offset 0.000 0.000 0.000 No. kpts 5 Spacing 0.07
REM Total runtime: 1485.55 s
REM Overall efficiency: 74.75 %
REM
REM 4Ag2Se_TETRA.cell (4020362940262d3df87d4014b41eb05e)
REM
REM compiler GCC version 4.9.2
REM options -cpp -iprefix /lustre/shared/ucl/apps/gcc/4.9.2/bin/../lib/gcc/x86_64-unknown-linux-gnu/4.9.2/ -mtune=corei7 -march=x86-64 -g -Og
REM COMMAND_LINE
REM seed 1525114946 1840628058 178272377 1709892734 748305716 -1488248311 -1431184168 -186433486 625412525 1768071306 240923938 760139284
REM
REM Se 3|2.1|7|7|9|40:41:32(qc=5)
REM Ag 3|2.2|7|7|9|40U:50:41:42(qc=5)
REM 
CELL 1.54180    5.55219    5.64728    7.33065   90.00000   90.00000   90.20325
LATT -1
SFAC Se Ag 
Se     1  0.1339637555142  0.3708935281168 -0.3309066972843 1.0
Se     1 -0.1339637555142 -0.3708935281168  0.1690933027157 1.0
Se     1 -0.3641873545164 -0.0067519908686 -0.4342526097194 1.0
Se     1  0.3641873545164  0.0067519908686  0.0657473902806 1.0
Ag     2  0.1945368388618  0.1020709975162  0.3864187965059 1.0
Ag     2 -0.1945368388618 -0.1020709975162 -0.1135812034941 1.0
Ag     2 -0.2946304505772  0.3895692249067 -0.1199211792528 1.0
Ag     2  0.2946304505772 -0.3895692249067  0.3800788207472 1.0
Ag     2 -0.2783316882734  0.1906071288866  0.2505185777575 1.0
Ag     2  0.2783316882734 -0.1906071288866 -0.2494814222425 1.0
Ag     2  0.2276158496425  0.4339795381953  0.0185059119930 1.0
Ag     2 -0.2276158496425 -0.4339795381953 -0.4814940880070 1.0
END
