TITL 4Ag2Se_TETRA_OPT-200811-104223-b31980 -0.0820 239.416104 -4.61182019E+004 0 0 12 (P2) n - 1
REM
REM Run started: Tue, 11 Aug 2020 11:17:34 +0100 in /lustre/scratch/uccabz1/launch_tmp/launcher_2020-08-11-09-42-21-814244
REM CASTEP 20.1 from code version af48c487+ pr-geom-scf-spinfix Tue Jun 2 15:39:59 2020 +0100
REM Functional PBE for solids (2008) Relativity Koelling-Harmon Dispersion off
REM Cut-off 300.0000 eV Grid scale 1.7500 Gmax 15.5288 1/A FBSC none
REM MP grid 3 3 2 Offset 0.000 0.000 0.000 No. kpts 6 Spacing 0.07
REM Total runtime: 2407.61 s
REM Overall efficiency: 77 %
REM
REM 4Ag2Se_TETRA_OPT.cell (db6eaae92e6a5f18c152ebab86a92a61)
REM
REM compiler GCC version 4.9.2
REM options -cpp -iprefix /lustre/shared/ucl/apps/gcc/4.9.2/bin/../lib/gcc/x86_64-unknown-linux-gnu/4.9.2/ -mtune=corei7 -march=x86-64 -g -Og
REM COMMAND_LINE
REM seed -366288508 1578524034 -1116615311 867515840 8480211 385279461 -1009403016 1912080936 51027436 25225007 935740265 -1963709927
REM
REM Se 3|2.1|7|7|9|40:41:32(qc=5)
REM Ag 3|2.2|7|7|9|40U:50:41:42(qc=5)
REM 
CELL 1.54180    4.98890    6.69712    7.20355   95.87383   90.00000   90.00000
LATT -1
SFAC Se Ag 
Se     1  0.1723737663912 -0.2742896366639 -0.0401387676501 1.0
Se     1  0.1723737663912  0.2742896366639 -0.4598612323499 1.0
Se     1 -0.3026919612193  0.2992190776774  0.1257568587793 1.0
Se     1 -0.3026919612193 -0.2992190776774  0.3742431412207 1.0
Ag     2  0.2058075518321 -0.3533860873693  0.4473100914646 1.0
Ag     2  0.2058075518321  0.3533860873693  0.0526899085354 1.0
Ag     2 -0.3658874982422 -0.0956746575697  0.0647677755424 1.0
Ag     2 -0.3658874982422  0.0956746575697  0.4352322244576 1.0
Ag     2 -0.1819590739510 -0.2171105911297 -0.2880123882782 1.0
Ag     2 -0.1819590739510  0.2171105911297 -0.2119876117218 1.0
Ag     2  0.3281081929174  0.0000000000000 -0.2500000000000 1.0
Ag     2  0.1300664374609  0.0000000000000  0.2500000000000 1.0
END
