TITL 4Ag2SE-200803-154820-726abe -0.0209 226.931814 -4.61183106E+004 0 0 12 (Cc) n - 1
REM
REM Run started: Mon, 03 Aug 2020 16:42:47 +0100 in /lustre/scratch/uccabz1/launch_tmp/launcher_2020-08-03-14-48-18-350126
REM CASTEP 20.1 from code version af48c487+ pr-geom-scf-spinfix Tue Jun 2 15:39:59 2020 +0100
REM Functional PBE for solids (2008) Relativity Koelling-Harmon Dispersion off
REM Cut-off 300.0000 eV Grid scale 1.7500 Gmax 15.5288 1/A FBSC none
REM MP grid 4 3 3 Offset 0.000 0.000 0.000 No. kpts 12 Spacing 0.07
REM Total runtime: 3961.86 s
REM Overall efficiency: 72.5 %
REM
REM 4Ag2SE.cell (6404a18c6b5dc90313b5c56acf317f23)
REM
REM compiler GCC version 4.9.2
REM options -cpp -iprefix /lustre/shared/ucl/apps/gcc/4.9.2/bin/../lib/gcc/x86_64-unknown-linux-gnu/4.9.2/ -mtune=corei7 -march=x86-64 -g -Og
REM COMMAND_LINE
REM seed 1665370529 1399847999 -433403510 1974718133 -2004974281 -1608833510 -1670641830 -1554072773 -898198276 940168120 517379821 -1513866568
REM
REM Se 3|2.1|7|7|9|40:41:32(qc=5)
REM Ag 3|2.2|7|7|9|40U:50:41:42(qc=5)
REM 
CELL 1.54180    4.90465    7.89845    7.89845  118.62685  105.84032  105.84032
LATT -1
SFAC Se Ag 
Se     1 -0.1097442675778 -0.2445811201687  0.0356511197226 1.0
Se     1  0.3902557324222  0.0356511197226 -0.2445811201687 1.0
Se     1  0.0201419466593  0.3175019967528 -0.4719265293989 1.0
Se     1 -0.4798580533407 -0.4719265293989  0.3175019967528 1.0
Ag     2  0.0976177631471 -0.3097264469326  0.3367214803398 1.0
Ag     2 -0.4023822368529  0.3367214803398 -0.3097264469326 1.0
Ag     2 -0.3284074800369 -0.0981693718321  0.3519232044700 1.0
Ag     2  0.1715925199631  0.3519232044700 -0.0981693718321 1.0
Ag     2  0.3884405772481  0.1323029899402  0.2369694292818 1.0
Ag     2 -0.1115594227519  0.2369694292818  0.1323029899402 1.0
Ag     2  0.3318821605601 -0.2450349343583 -0.1230528178165 1.0
Ag     2 -0.1681178394399 -0.1230528178165 -0.2450349343583 1.0
END
