TITL 4Ag2Se_TETRA_OPT-200811-091908-c765d6 -0.0167 232.253342 -4.61184449E+004 0 0 12 (P-1) n - 1
REM
REM Run started: Tue, 11 Aug 2020 11:33:12 +0100 in /lustre/scratch/uccabz1/launch_tmp/launcher_2020-08-11-08-19-06-880452
REM CASTEP 20.1 from code version af48c487+ pr-geom-scf-spinfix Tue Jun 2 15:39:59 2020 +0100
REM Functional PBE for solids (2008) Relativity Koelling-Harmon Dispersion off
REM Cut-off 300.0000 eV Grid scale 1.7500 Gmax 15.5288 1/A FBSC none
REM MP grid 4 2 2 Offset 0.000 0.000 0.000 No. kpts 8 Spacing 0.07
REM Total runtime: 8188.46 s
REM Overall efficiency: 91.6923 %
REM
REM 4Ag2Se_TETRA_OPT.cell (db6eaae92e6a5f18c152ebab86a92a61)
REM
REM compiler GCC version 4.9.2
REM options -cpp -iprefix /lustre/shared/ucl/apps/gcc/4.9.2/bin/../lib/gcc/x86_64-unknown-linux-gnu/4.9.2/ -mtune=corei7 -march=x86-64 -g -Og
REM COMMAND_LINE
REM seed 1233922654 -1257240750 -1842226123 -1038309474 1779027335 1166715237 1309073823 2111447582 -20568514 -2098365697 -116745832 -904190698
REM
REM Se 3|2.1|7|7|9|40:41:32(qc=5)
REM Ag 3|2.2|7|7|9|40U:50:41:42(qc=5)
REM 
CELL 1.54180    4.44102    7.33230    7.20566   91.19348   92.44034   97.65254
LATT -1
SFAC Se Ag 
Se     1  0.2002355712153  0.2181678151175 -0.0658862692308 1.0
Se     1 -0.2002355712153 -0.2181678151175  0.0658862692308 1.0
Se     1  0.3296147355928 -0.2029281399417 -0.4005876884425 1.0
Se     1 -0.3296147355928  0.2029281399417  0.4005876884425 1.0
Ag     2 -0.1285469586996 -0.0449760674706 -0.2706370815785 1.0
Ag     2  0.1285469586996  0.0449760674706  0.2706370815785 1.0
Ag     2 -0.3030173440542  0.3115544379366 -0.2417866760624 1.0
Ag     2  0.3030173440542 -0.3115544379366  0.2417866760624 1.0
Ag     2  0.2196871327394  0.3838611934383 -0.4928483396030 1.0
Ag     2 -0.2196871327394 -0.3838611934383  0.4928483396030 1.0
Ag     2  0.2346771586362 -0.4331803481230 -0.1327918799056 1.0
Ag     2 -0.2346771586362  0.4331803481230  0.1327918799056 1.0
END
