TITL 4Ag2Se_TETRA_OPT-200811-100140-a4ecd1 0.0517 227.744833 -4.61184490E+004 0 0 12 (P1) n - 1
REM
REM Run started: Tue, 11 Aug 2020 12:09:18 +0100 in /lustre/scratch/uccabz1/launch_tmp/launcher_2020-08-11-09-01-38-812674
REM CASTEP 20.1 from code version af48c487+ pr-geom-scf-spinfix Tue Jun 2 15:39:59 2020 +0100
REM Functional PBE for solids (2008) Relativity Koelling-Harmon Dispersion off
REM Cut-off 300.0000 eV Grid scale 1.7500 Gmax 15.5288 1/A FBSC none
REM MP grid 4 3 2 Offset 0.000 0.000 0.000 No. kpts 12 Spacing 0.07
REM Total runtime: 8449.64 s
REM Overall efficiency: 83.5833 %
REM
REM 4Ag2Se_TETRA_OPT.cell (db6eaae92e6a5f18c152ebab86a92a61)
REM
REM compiler GCC version 4.9.2
REM options -cpp -iprefix /lustre/shared/ucl/apps/gcc/4.9.2/bin/../lib/gcc/x86_64-unknown-linux-gnu/4.9.2/ -mtune=corei7 -march=x86-64 -g -Og
REM COMMAND_LINE
REM seed 410237248 -630879147 -1854616687 -1331594720 -946024946 -2012928313 1890131953 -1601070153 740511163 -1067967133 1116387181 -48902964
REM
REM Se 3|2.1|7|7|9|40:41:32(qc=5)
REM Ag 3|2.2|7|7|9|40U:50:41:42(qc=5)
REM 
CELL 1.54180    4.41324    7.21471    7.26594   83.73732   91.49457   82.37978
LATT -1
SFAC Se Ag 
Se     1  0.0913698247397  0.0390638708059 -0.3797317290514 1.0
Se     1 -0.2316528721730 -0.4820082426673 -0.1258556971159 1.0
Se     1  0.5454426451847 -0.4840317869932  0.3756937985890 1.0
Se     1 -0.3799569597191 -0.0192860269063  0.0688408530654 1.0
Ag     2  0.0912798842438  0.1885211849597 -0.0077957739258 1.0
Ag     2  0.1148377522167 -0.1295410478215  0.2979602331518 1.0
Ag     2  0.1316005845224  0.5295851629535 -0.3905064295081 1.0
Ag     2  0.2388941771458 -0.2366951885775 -0.0935791965923 1.0
Ag     2 -0.3653275842722 -0.1804003535485 -0.4258849192148 1.0
Ag     2  0.4689669014415  0.1676325803237  0.3445960643274 1.0
Ag     2  0.5654996104123  0.2196075480017 -0.2692597940784 1.0
Ag     2  0.0563550362574 -0.4884767005301  0.1838920903534 1.0
END
