TITL 4Ag2Se_TETRA-200803-163359-ad0e60 -0.0082 233.339903 -4.61166325E+004 0 0 12 (Pccm) n - 1
REM
REM Run started: Mon, 03 Aug 2020 16:55:26 +0100 in /lustre/scratch/uccabz1/launch_tmp/launcher_2020-08-03-15-33-57-415254
REM CASTEP 20.1 from code version af48c487+ pr-geom-scf-spinfix Tue Jun 2 15:39:59 2020 +0100
REM Functional PBE for solids (2008) Relativity Koelling-Harmon Dispersion off
REM Cut-off 300.0000 eV Grid scale 1.7500 Gmax 15.5288 1/A FBSC none
REM MP grid 3 3 2 Offset 0.000 0.000 0.000 No. kpts 4 Spacing 0.07
REM Total runtime: 1414.68 s
REM Overall efficiency: 74 %
REM
REM 4Ag2Se_TETRA.cell (4020362940262d3df87d4014b41eb05e)
REM
REM compiler GCC version 4.9.2
REM options -cpp -iprefix /lustre/shared/ucl/apps/gcc/4.9.2/bin/../lib/gcc/x86_64-unknown-linux-gnu/4.9.2/ -mtune=corei7 -march=x86-64 -g -Og
REM COMMAND_LINE
REM seed -1133955649 13579143 1773947389 1954138484 1318689043 4836281 1601931403 -67113556 -650112288 -444184808 1292384417 -887538588
REM
REM Se 3|2.1|7|7|9|40:41:32(qc=5)
REM Ag 3|2.2|7|7|9|40U:50:41:42(qc=5)
REM 
CELL 1.54180    5.59714    5.30166    7.86340   90.00000   90.00000   90.00000
LATT -1
SFAC Se Ag 
Se     1  0.2624254249366  0.2500000000000 -0.1946278773649 1.0
Se     1 -0.2624254249366  0.2500000000000  0.1946278773649 1.0
Se     1  0.2624254249366 -0.2500000000000  0.1946278773649 1.0
Se     1 -0.2624254249366 -0.2500000000000 -0.1946278773649 1.0
Ag     2  0.2208096319539 -0.2500000000000 -0.1484367358313 1.0
Ag     2 -0.2208096319539 -0.2500000000000  0.1484367358313 1.0
Ag     2  0.2208096319539  0.2500000000000  0.1484367358313 1.0
Ag     2 -0.2208096319539  0.2500000000000 -0.1484367358313 1.0
Ag     2 -0.2532608332033  0.2500000000000 -0.4856581509835 1.0
Ag     2  0.2532608332033  0.2500000000000  0.4856581509835 1.0
Ag     2 -0.2532608332033 -0.2500000000000  0.4856581509835 1.0
Ag     2  0.2532608332033 -0.2500000000000 -0.4856581509835 1.0
END
