TITL 4Ag2Se_TETRA-200803-165047-c8c067 -0.0411 228.444819 -4.61166004E+004 0 0 12 (P43) n - 1
REM
REM Run started: Mon, 03 Aug 2020 17:15:43 +0100 in /lustre/scratch/uccabz1/launch_tmp/launcher_2020-08-03-15-50-46-312915
REM CASTEP 20.1 from code version af48c487+ pr-geom-scf-spinfix Tue Jun 2 15:39:59 2020 +0100
REM Functional PBE for solids (2008) Relativity Koelling-Harmon Dispersion off
REM Cut-off 300.0000 eV Grid scale 1.7500 Gmax 15.5288 1/A FBSC none
REM MP grid 3 3 3 Offset 0.000 0.000 0.000 No. kpts 6 Spacing 0.07
REM Total runtime: 1643.58 s
REM Overall efficiency: 65.9167 %
REM
REM 4Ag2Se_TETRA.cell (4020362940262d3df87d4014b41eb05e)
REM
REM compiler GCC version 4.9.2
REM options -cpp -iprefix /lustre/shared/ucl/apps/gcc/4.9.2/bin/../lib/gcc/x86_64-unknown-linux-gnu/4.9.2/ -mtune=corei7 -march=x86-64 -g -Og
REM COMMAND_LINE
REM seed -66161271 1025108723 -1342431670 -753617152 -584614567 -276970601 850507482 1444178209 1896600381 755211312 333525555 -1823206829
REM
REM Se 3|2.1|7|7|9|40:41:32(qc=5)
REM Ag 3|2.2|7|7|9|40U:50:41:42(qc=5)
REM 
CELL 1.54180    6.21021    5.92337    6.21021   90.00000   90.00000   90.00000
LATT -1
SFAC Se Ag 
Se     1 -0.1544753424030  0.0709070498834 -0.3457442247212 1.0
Se     1  0.1544753424030 -0.4290929501166  0.3457442247212 1.0
Se     1  0.3457442247212  0.3209070498834 -0.1544753424030 1.0
Se     1 -0.3457442247212 -0.1790929501166  0.1544753424030 1.0
Ag     2 -0.0209052333927  0.1184408307102  0.2535864637305 1.0
Ag     2  0.0209052333927 -0.3815591692898 -0.2535864637305 1.0
Ag     2 -0.2535864637305  0.3684408307102 -0.0209052333927 1.0
Ag     2  0.2535864637305 -0.1315591692898  0.0209052333927 1.0
Ag     2 -0.2572810929507  0.4765395194063  0.4216589872873 1.0
Ag     2  0.2572810929507 -0.0234604805937 -0.4216589872873 1.0
Ag     2 -0.4216589872873 -0.2734604805937 -0.2572810929507 1.0
Ag     2  0.4216589872873  0.2265395194063  0.2572810929507 1.0
END
