TITL 4Ag2Se_TETRA-200803-165231-ab0992 0.1275 237.039045 -4.61174845E+004 0 0 12 (P42) n - 1
REM
REM Run started: Mon, 03 Aug 2020 17:14:06 +0100 in /lustre/scratch/uccabz1/launch_tmp/launcher_2020-08-03-15-52-29-632661
REM CASTEP 20.1 from code version af48c487+ pr-geom-scf-spinfix Tue Jun 2 15:39:59 2020 +0100
REM Functional PBE for solids (2008) Relativity Koelling-Harmon Dispersion off
REM Cut-off 300.0000 eV Grid scale 1.7500 Gmax 15.5288 1/A FBSC none
REM MP grid 3 3 3 Offset 0.000 0.000 0.000 No. kpts 6 Spacing 0.07
REM Total runtime: 1421.11 s
REM Overall efficiency: 70.9167 %
REM
REM 4Ag2Se_TETRA.cell (4020362940262d3df87d4014b41eb05e)
REM
REM compiler GCC version 4.9.2
REM options -cpp -iprefix /lustre/shared/ucl/apps/gcc/4.9.2/bin/../lib/gcc/x86_64-unknown-linux-gnu/4.9.2/ -mtune=corei7 -march=x86-64 -g -Og
REM COMMAND_LINE
REM seed 1241355017 1233109114 681641740 -1127176966 552416767 676233223 1020858750 -2005681289 1471715508 415566863 130507388 -2145111829
REM
REM Se 3|2.1|7|7|9|40:41:32(qc=5)
REM Ag 3|2.2|7|7|9|40U:50:41:42(qc=5)
REM 
CELL 1.54180    5.36207    6.64880    6.64880   90.00000   90.00000   90.00000
LATT -1
SFAC Se Ag 
Se     1  0.3973219105200  0.1226940845657  0.2606098929279 1.0
Se     1  0.3973219105200 -0.1226940845657 -0.2606098929279 1.0
Se     1 -0.1026780894800 -0.2606098929279  0.1226940845657 1.0
Se     1 -0.1026780894800  0.2606098929279 -0.1226940845657 1.0
Ag     2  0.3790373620051 -0.3049032449952  0.0766581610006 1.0
Ag     2  0.3790373620051  0.3049032449952 -0.0766581610006 1.0
Ag     2 -0.1209626379949 -0.0766581610006 -0.3049032449952 1.0
Ag     2 -0.1209626379949  0.0766581610006  0.3049032449952 1.0
Ag     2 -0.3201893725252 -0.4520387081633 -0.3000071559753 1.0
Ag     2 -0.3201893725252  0.4520387081633  0.3000071559753 1.0
Ag     2  0.1798106274748  0.3000071559753 -0.4520387081633 1.0
Ag     2  0.1798106274748 -0.3000071559753  0.4520387081633 1.0
END
