TITL 4Ag2Se_TETRA_OPT-200811-110116-4d5986 -0.1608 224.312433 -4.61183903E+004 0 0 12 (P1) n - 1
REM
REM Run started: Tue, 11 Aug 2020 13:05:10 +0100 in /lustre/scratch/uccabz1/launch_tmp/launcher_2020-08-11-10-01-14-891820
REM CASTEP 20.1 from code version af48c487+ pr-geom-scf-spinfix Tue Jun 2 15:39:59 2020 +0100
REM Functional PBE for solids (2008) Relativity Koelling-Harmon Dispersion off
REM Cut-off 300.0000 eV Grid scale 1.7500 Gmax 15.5288 1/A FBSC none
REM MP grid 4 2 2 Offset 0.000 0.000 0.000 No. kpts 8 Spacing 0.07
REM Total runtime: 8266.29 s
REM Overall efficiency: 87.5833 %
REM
REM 4Ag2Se_TETRA_OPT.cell (db6eaae92e6a5f18c152ebab86a92a61)
REM
REM compiler GCC version 4.9.2
REM options -cpp -iprefix /lustre/shared/ucl/apps/gcc/4.9.2/bin/../lib/gcc/x86_64-unknown-linux-gnu/4.9.2/ -mtune=corei7 -march=x86-64 -g -Og
REM COMMAND_LINE
REM seed 1784319681 1185701375 1932661414 2065733451 -786648392 415338991 -187067823 -511070275 -1472003660 -1457216107 169599824 -1952748895
REM
REM Se 3|2.1|7|7|9|40:41:32(qc=5)
REM Ag 3|2.2|7|7|9|40U:50:41:42(qc=5)
REM 
CELL 1.54180    4.34487    7.23903    7.22577   83.33957   88.44859   83.61464
LATT -1
SFAC Se Ag 
Se     1 -0.4680681143498  0.1343830597361  0.2135693120042 1.0
Se     1 -0.3698292748750 -0.4441088616973 -0.1254136757643 1.0
Se     1  0.0603317449149  0.0948122447905 -0.4233692712780 1.0
Se     1  0.1771773615489 -0.3645735740754  0.4207289671442 1.0
Ag     2 -0.3606868801241 -0.1656940833911 -0.4864584071180 1.0
Ag     2  0.0931351388208 -0.2085413987685 -0.1668916060502 1.0
Ag     2 -0.4337250591167  0.0648525290399 -0.1948681805391 1.0
Ag     2 -0.3220991943217  0.3957478638421  0.4567264741915 1.0
Ag     2  0.0851868546560 -0.5209694924439  0.1274753972733 1.0
Ag     2  0.1672851258454  0.3943122387315 -0.2639379119426 1.0
Ag     2  0.0429692970812  0.1117713141206  0.0364103606344 1.0
Ag     2 -0.4393667000800 -0.2142886398844  0.1314398414444 1.0
END
