TITL 4Ag2Se_TETRA_OPT-200811-105416-6c29b1 0.0471 232.179707 -4.61183598E+004 0 0 12 (P1) n - 1
REM
REM Run started: Tue, 11 Aug 2020 12:56:02 +0100 in /lustre/scratch/uccabz1/launch_tmp/launcher_2020-08-11-09-54-12-799690
REM CASTEP 20.1 from code version af48c487+ pr-geom-scf-spinfix Tue Jun 2 15:39:59 2020 +0100
REM Functional PBE for solids (2008) Relativity Koelling-Harmon Dispersion off
REM Cut-off 300.0000 eV Grid scale 1.7500 Gmax 15.5288 1/A FBSC none
REM MP grid 4 2 2 Offset 0.000 0.000 0.000 No. kpts 8 Spacing 0.07
REM Total runtime: 8144.84 s
REM Overall efficiency: 93.8333 %
REM
REM 4Ag2Se_TETRA_OPT.cell (db6eaae92e6a5f18c152ebab86a92a61)
REM
REM compiler GCC version 4.9.2
REM options -cpp -iprefix /lustre/shared/ucl/apps/gcc/4.9.2/bin/../lib/gcc/x86_64-unknown-linux-gnu/4.9.2/ -mtune=corei7 -march=x86-64 -g -Og
REM COMMAND_LINE
REM seed 2002252573 597270661 1727472131 452943506 810178617 -1238708996 -1283738441 764322439 273238129 306109549 -519532148 672983097
REM
REM Se 3|2.1|7|7|9|40:41:32(qc=5)
REM Ag 3|2.2|7|7|9|40U:50:41:42(qc=5)
REM 
CELL 1.54180    4.41315    7.40777    7.16136   88.44317   94.79089   84.75872
LATT -1
SFAC Se Ag 
Se     1 -0.3236121645443 -0.3173673494206  0.0994871590915 1.0
Se     1  0.2961994429077 -0.4712136817945 -0.4058674815885 1.0
Se     1 -0.0961516442625  0.0244273732157 -0.3388217503819 1.0
Se     1  0.0646492474987  0.2444957126756  0.1489542688469 1.0
Ag     2  0.4161640012989 -0.1456065417644 -0.2020187364432 1.0
Ag     2 -0.2933724228163 -0.2509276210541  0.4700395846790 1.0
Ag     2  0.1599681223893 -0.1654765298539  0.2324033426291 1.0
Ag     2 -0.1973315693372  0.3688726499818  0.4473406360015 1.0
Ag     2 -0.4008221438319  0.0551792446387  0.1179047310080 1.0
Ag     2  0.3639652104030  0.1111146752049  0.4742890953715 1.0
Ag     2  0.1688467822787 -0.4684986721922 -0.0511672424706 1.0
Ag     2 -0.3234599619841  0.3147206403629 -0.1673148067433 1.0
END
