TITL 4Ag2SE-200803-154822-6dafa2 -0.0186 227.299325 -4.61179640E+004 0 0 12 (I-4) n - 1
REM
REM Run started: Mon, 03 Aug 2020 16:43:14 +0100 in /lustre/scratch/uccabz1/launch_tmp/launcher_2020-08-03-14-48-20-941239
REM CASTEP 20.1 from code version af48c487+ pr-geom-scf-spinfix Tue Jun 2 15:39:59 2020 +0100
REM Functional PBE for solids (2008) Relativity Koelling-Harmon Dispersion off
REM Cut-off 300.0000 eV Grid scale 1.7500 Gmax 15.5288 1/A FBSC none
REM MP grid 4 3 3 Offset 0.000 0.000 0.000 No. kpts 18 Spacing 0.07
REM Total runtime: 3333.71 s
REM Overall efficiency: 88.2857 %
REM
REM 4Ag2SE.cell (6404a18c6b5dc90313b5c56acf317f23)
REM
REM compiler GCC version 4.9.2
REM options -cpp -iprefix /lustre/shared/ucl/apps/gcc/4.9.2/bin/../lib/gcc/x86_64-unknown-linux-gnu/4.9.2/ -mtune=corei7 -march=x86-64 -g -Og
REM COMMAND_LINE
REM seed -1294548841 -730261333 -1158672447 -1713780425 1148443261 1650844851 -1038354464 306333440 175608771 -407850457 -226475630 1794512692
REM
REM Se 3|2.1|7|7|9|40:41:32(qc=5)
REM Ag 3|2.2|7|7|9|40U:50:41:42(qc=5)
REM 
CELL 1.54180    5.26170    7.07956    7.07956   82.06234   68.18493   68.18493
LATT -1
SFAC Se Ag 
Se     1 -0.0573105138594 -0.3082070636512 -0.0867578022922 1.0
Se     1 -0.4522753798028  0.3082070636512  0.0867578022922 1.0
Se     1  0.1440682161515 -0.0867578022922  0.3082070636512 1.0
Se     1  0.3655174775106  0.0867578022922 -0.3082070636512 1.0
Ag     2  0.0889950192383  0.3058840891438  0.4328961253553 1.0
Ag     2 -0.1722247662626 -0.3058840891438 -0.4328961253553 1.0
Ag     2  0.4781087554064  0.4328961253553 -0.3058840891438 1.0
Ag     2  0.6051207916180 -0.4328961253553  0.3058840891438 1.0
Ag     2  0.0809413131789  0.2681230174886  0.0514742034128 1.0
Ag     2  0.4005385340804 -0.2681230174886 -0.0514742034128 1.0
Ag     2 -0.1324156165918  0.0514742034128 -0.2681230174886 1.0
Ag     2 -0.3490644306676 -0.0514742034128  0.2681230174886 1.0
END
