TITL 4Ag2Se_TETRA_OPT-200811-105613-2cca78 -0.0398 226.149654 -4.61186769E+004 0 0 12 (P21/c) n - 1
REM
REM Run started: Tue, 11 Aug 2020 12:00:45 +0100 in /lustre/scratch/uccabz1/launch_tmp/launcher_2020-08-11-09-56-11-114436
REM CASTEP 20.1 from code version af48c487+ pr-geom-scf-spinfix Tue Jun 2 15:39:59 2020 +0100
REM Functional PBE for solids (2008) Relativity Koelling-Harmon Dispersion off
REM Cut-off 300.0000 eV Grid scale 1.7500 Gmax 15.5288 1/A FBSC none
REM MP grid 3 3 3 Offset 0.000 0.000 0.000 No. kpts 10 Spacing 0.07
REM Total runtime: 4445.67 s
REM Overall efficiency: 87.3636 %
REM
REM 4Ag2Se_TETRA_OPT.cell (db6eaae92e6a5f18c152ebab86a92a61)
REM
REM compiler GCC version 4.9.2
REM options -cpp -iprefix /lustre/shared/ucl/apps/gcc/4.9.2/bin/../lib/gcc/x86_64-unknown-linux-gnu/4.9.2/ -mtune=corei7 -march=x86-64 -g -Og
REM COMMAND_LINE
REM seed -1924080617 722586942 -1134198935 -996455795 1011208447 -1022673972 193690311 -2086742916 940231515 -1965537517 -1964336756 -788420050
REM
REM Se 3|2.1|7|7|9|40:41:32(qc=5)
REM Ag 3|2.2|7|7|9|40U:50:41:42(qc=5)
REM 
CELL 1.54180    4.86020    6.87028    6.77396   90.00000   91.07096   90.00000
LATT -1
SFAC Se Ag 
Se     1  0.1791772973012 -0.2922780331701 -0.1479707100703 1.0
Se     1  0.1791772973012  0.2922780331701  0.3520292899297 1.0
Se     1 -0.3380281699088  0.2076341375758 -0.0473627990396 1.0
Se     1 -0.3380281699088 -0.2076341375758  0.4526372009604 1.0
Ag     2  0.1647480578290 -0.0435338120951  0.5570002511786 1.0
Ag     2  0.1647480578290  0.0435338120951  0.0570002511786 1.0
Ag     2  0.1733167540246 -0.3212097917735  0.2495231588774 1.0
Ag     2  0.1733167540246  0.3212097917735 -0.2504768411226 1.0
Ag     2 -0.3222823847443 -0.4565336393982 -0.2523919116919 1.0
Ag     2 -0.3222823847443  0.4565336393982  0.2476080883081 1.0
Ag     2 -0.3292424545016 -0.1789353276418  0.0550301107457 1.0
Ag     2 -0.3292424545016  0.1789353276418 -0.4449698892543 1.0
END
