TITL 4Ag2Se_TETRA-200803-162152-80db9f -0.0082 229.450791 -4.61181504E+004 0 0 12 (R3) n - 1
REM
REM Run started: Mon, 03 Aug 2020 16:44:56 +0100 in /lustre/scratch/uccabz1/launch_tmp/launcher_2020-08-03-15-21-51-012773
REM CASTEP 20.1 from code version af48c487+ pr-geom-scf-spinfix Tue Jun 2 15:39:59 2020 +0100
REM Functional PBE for solids (2008) Relativity Koelling-Harmon Dispersion off
REM Cut-off 300.0000 eV Grid scale 1.7500 Gmax 15.5288 1/A FBSC none
REM MP grid 3 3 3 Offset 0.000 0.000 0.000 No. kpts 6 Spacing 0.07
REM Total runtime: 1518.48 s
REM Overall efficiency: 64.5 %
REM
REM 4Ag2Se_TETRA.cell (4020362940262d3df87d4014b41eb05e)
REM
REM compiler GCC version 4.9.2
REM options -cpp -iprefix /lustre/shared/ucl/apps/gcc/4.9.2/bin/../lib/gcc/x86_64-unknown-linux-gnu/4.9.2/ -mtune=corei7 -march=x86-64 -g -Og
REM COMMAND_LINE
REM seed 703392094 -1200420292 -341363271 -1494647045 -1187390372 -1905212581 1819521667 -1238810708 1744164177 -1897354765 1190152622 -386778726
REM
REM Se 3|2.1|7|7|9|40:41:32(qc=5)
REM Ag 3|2.2|7|7|9|40U:50:41:42(qc=5)
REM 
CELL 1.54180    6.12206    6.12206    6.12206   89.88645   89.88645   89.88645
LATT -1
SFAC Se Ag 
Se     1 -0.2108505937474 -0.1063844222047  0.3727980362587 1.0
Se     1 -0.1063844222047  0.3727980362587 -0.2108505937474 1.0
Se     1  0.3727980362587 -0.2108505937474 -0.1063844222047 1.0
Se     1  0.3050074728993  0.3050074728993  0.3050074728993 1.0
Ag     2  0.3790000697341  0.3946313029487 -0.2733451239235 1.0
Ag     2  0.3946313029487 -0.2733451239235  0.3790000697341 1.0
Ag     2 -0.2733451239235  0.3790000697341  0.3946313029487 1.0
Ag     2  0.1475137181053  0.0211490430471 -0.3955930636023 1.0
Ag     2  0.0211490430471 -0.3955930636023  0.1475137181053 1.0
Ag     2 -0.3955930636023  0.1475137181053  0.0211490430471 1.0
Ag     2  0.0564309319156  0.0564309319156  0.0564309319156 1.0
Ag     2 -0.2053986714307 -0.2053986714307 -0.2053986714307 1.0
END
