TITL 4Ag2Se_TETRA-200803-161722-750376 -0.0166 225.653413 -4.61175247E+004 0 0 12 (Cc) n - 1
REM
REM Run started: Mon, 03 Aug 2020 17:00:22 +0100 in /lustre/scratch/uccabz1/launch_tmp/launcher_2020-08-03-15-17-20-380197
REM CASTEP 20.1 from code version af48c487+ pr-geom-scf-spinfix Tue Jun 2 15:39:59 2020 +0100
REM Functional PBE for solids (2008) Relativity Koelling-Harmon Dispersion off
REM Cut-off 300.0000 eV Grid scale 1.7500 Gmax 15.5288 1/A FBSC none
REM MP grid 3 3 3 Offset 0.000 0.000 0.000 No. kpts 10 Spacing 0.07
REM Total runtime: 2850.88 s
REM Overall efficiency: 91 %
REM
REM 4Ag2Se_TETRA.cell (4020362940262d3df87d4014b41eb05e)
REM
REM compiler GCC version 4.9.2
REM options -cpp -iprefix /lustre/shared/ucl/apps/gcc/4.9.2/bin/../lib/gcc/x86_64-unknown-linux-gnu/4.9.2/ -mtune=corei7 -march=x86-64 -g -Og
REM COMMAND_LINE
REM seed -846046357 -1002201027 -171004585 321243919 1949046201 91187577 1805204992 -1586454928 934856045 -1231155208 552532103 -9198415
REM
REM Se 3|2.1|7|7|9|40:41:32(qc=5)
REM Ag 3|2.2|7|7|9|40U:50:41:42(qc=5)
REM 
CELL 1.54180    5.80663    6.79779    5.80663   87.76389   99.48769   87.76389
LATT -1
SFAC Se Ag 
Se     1  0.1049310549901 -0.1242769577063 -0.2409245774161 1.0
Se     1 -0.2409245774161  0.3757230422937  0.1049310549901 1.0
Se     1 -0.4540518728082 -0.1044592685212  0.3149738711964 1.0
Se     1  0.3149738711964  0.3955407314788 -0.4540518728082 1.0
Ag     2  0.3164302222647  0.1860506477727 -0.0498289028795 1.0
Ag     2 -0.0498289028795 -0.3139493522273  0.3164302222647 1.0
Ag     2 -0.0243952742278 -0.4964749931406 -0.2186354537157 1.0
Ag     2 -0.2186354537157  0.0035250068594 -0.0243952742278 1.0
Ag     2  0.1382383934050  0.0710314072394  0.3593571801487 1.0
Ag     2  0.3593571801487 -0.4289685927606  0.1382383934050 1.0
Ag     2 -0.2708465828988  0.2079786643560 -0.4682170580588 1.0
Ag     2 -0.4682170580588 -0.2920213356440 -0.2708465828988 1.0
END
