TITL 4Ag2Se_TETRA_OPT-200811-093127-f3e376 0.0421 232.842382 -4.61184414E+004 0 0 12 (P-1) n - 1
REM
REM Run started: Tue, 11 Aug 2020 11:11:27 +0100 in /lustre/scratch/uccabz1/launch_tmp/launcher_2020-08-11-08-31-26-311118
REM CASTEP 20.1 from code version af48c487+ pr-geom-scf-spinfix Tue Jun 2 15:39:59 2020 +0100
REM Functional PBE for solids (2008) Relativity Koelling-Harmon Dispersion off
REM Cut-off 300.0000 eV Grid scale 1.7500 Gmax 15.5288 1/A FBSC none
REM MP grid 4 2 3 Offset 0.000 0.000 0.000 No. kpts 12 Spacing 0.07
REM Total runtime: 6063.71 s
REM Overall efficiency: 79.5 %
REM
REM 4Ag2Se_TETRA_OPT.cell (db6eaae92e6a5f18c152ebab86a92a61)
REM
REM compiler GCC version 4.9.2
REM options -cpp -iprefix /lustre/shared/ucl/apps/gcc/4.9.2/bin/../lib/gcc/x86_64-unknown-linux-gnu/4.9.2/ -mtune=corei7 -march=x86-64 -g -Og
REM COMMAND_LINE
REM seed -2112759324 -1077072367 1919931573 758327175 438237443 -1080655289 1034559933 1675399742 -461740232 -1829254827 -1026151954 1948053766
REM
REM Se 3|2.1|7|7|9|40:41:32(qc=5)
REM Ag 3|2.2|7|7|9|40U:50:41:42(qc=5)
REM 
CELL 1.54180    4.25621    7.68226    7.30774   85.77883  101.90454   87.90680
LATT -1
SFAC Se Ag 
Se     1 -0.3695276611014 -0.3835354313802 -0.2163558318771 1.0
Se     1  0.3695276611014  0.3835354313802  0.2163558318771 1.0
Se     1  0.0877298857453  0.1637831398622 -0.2453771448374 1.0
Se     1 -0.0877298857453 -0.1637831398622  0.2453771448374 1.0
Ag     2 -0.0597729767295  0.1676085366066  0.3816656877543 1.0
Ag     2  0.0597729767295 -0.1676085366066 -0.3816656877543 1.0
Ag     2 -0.3651744348192 -0.0420587884379 -0.1559555673105 1.0
Ag     2  0.3651744348192  0.0420587884379  0.1559555673105 1.0
Ag     2  0.2212113049335 -0.2997308955780 -0.0009229965222 1.0
Ag     2 -0.2212113049335  0.2997308955780  0.0009229965222 1.0
Ag     2 -0.5023698047247 -0.3287128450918  0.4173901011595 1.0
Ag     2  0.5023698047247  0.3287128450918 -0.4173901011595 1.0
END
