TITL 4Ag2SE-200803-160651-cdca42 -0.0263 225.055501 -4.61184240E+004 0 0 12 (Cmce) n - 1
REM
REM Run started: Mon, 03 Aug 2020 16:44:17 +0100 in /lustre/scratch/uccabz1/launch_tmp/launcher_2020-08-03-15-06-49-947862
REM CASTEP 20.1 from code version af48c487+ pr-geom-scf-spinfix Tue Jun 2 15:39:59 2020 +0100
REM Functional PBE for solids (2008) Relativity Koelling-Harmon Dispersion off
REM Cut-off 300.0000 eV Grid scale 1.7500 Gmax 15.5288 1/A FBSC none
REM MP grid 3 3 3 Offset 0.000 0.000 0.000 No. kpts 8 Spacing 0.07
REM Total runtime: 2379.73 s
REM Overall efficiency: 92.1429 %
REM
REM 4Ag2SE.cell (6404a18c6b5dc90313b5c56acf317f23)
REM
REM compiler GCC version 4.9.2
REM options -cpp -iprefix /lustre/shared/ucl/apps/gcc/4.9.2/bin/../lib/gcc/x86_64-unknown-linux-gnu/4.9.2/ -mtune=corei7 -march=x86-64 -g -Og
REM COMMAND_LINE
REM seed -450104972 -1041893134 -185497628 -1723577720 653384094 -1979504542 1395944346 1073570920 999869818 1761730399 -19292553 -1180288774
REM
REM Se 3|2.1|7|7|9|40:41:32(qc=5)
REM Ag 3|2.2|7|7|9|40U:50:41:42(qc=5)
REM 
CELL 1.54180    6.46435    5.59726    6.82059  114.22497   90.00000   90.00000
LATT -1
SFAC Se Ag 
Se     1  0.4834401801949 -0.0285893064525 -0.3029595892198 1.0
Se     1 -0.4834401801949  0.2743702827673  0.3029595892198 1.0
Se     1 -0.0165598198051 -0.2256297172327  0.3029595892198 1.0
Se     1  0.0165598198051 -0.5285893064525 -0.3029595892198 1.0
Ag     2 -0.0685949375174  0.2624333353377  0.2847675111410 1.0
Ag     2  0.0685949375174 -0.0223341758033 -0.2847675111410 1.0
Ag     2  0.4314050624826  0.4776658241967 -0.2847675111410 1.0
Ag     2 -0.4314050624826 -0.2375666646623  0.2847675111410 1.0
Ag     2 -0.2476751354484  0.3399950740123 -0.0649148161263 1.0
Ag     2  0.2476751354484  0.4049098901386  0.0649148161263 1.0
Ag     2  0.2523248645516 -0.0950901098614  0.0649148161263 1.0
Ag     2 -0.2523248645516 -0.1600049259877 -0.0649148161263 1.0
END
