TITL 4Ag2SE-200803-154822-7277ee 0.0042 239.293546 -4.61171210E+004 0 0 12 (Cm) n - 1
REM
REM Run started: Mon, 03 Aug 2020 16:43:44 +0100 in /lustre/scratch/uccabz1/launch_tmp/launcher_2020-08-03-14-48-20-481128
REM CASTEP 20.1 from code version af48c487+ pr-geom-scf-spinfix Tue Jun 2 15:39:59 2020 +0100
REM Functional PBE for solids (2008) Relativity Koelling-Harmon Dispersion off
REM Cut-off 300.0000 eV Grid scale 1.7500 Gmax 15.5288 1/A FBSC none
REM MP grid 4 3 2 Offset 0.000 0.000 0.000 No. kpts 12 Spacing 0.07
REM Total runtime: 3466.7 s
REM Overall efficiency: 73.4286 %
REM
REM 4Ag2SE.cell (6404a18c6b5dc90313b5c56acf317f23)
REM
REM compiler GCC version 4.9.2
REM options -cpp -iprefix /lustre/shared/ucl/apps/gcc/4.9.2/bin/../lib/gcc/x86_64-unknown-linux-gnu/4.9.2/ -mtune=corei7 -march=x86-64 -g -Og
REM COMMAND_LINE
REM seed -592090253 -187634632 1369234221 -842205989 410429371 207919432 -446647310 -1341966465 1334451237 -584614567 484068010 1625587302
REM
REM Se 3|2.1|7|7|9|40:41:32(qc=5)
REM Ag 3|2.2|7|7|9|40U:50:41:42(qc=5)
REM 
CELL 1.54180    4.13319    7.51743    8.95078  109.99016   95.09949  109.76409
LATT -1
SFAC Se Ag 
Se     1  0.1956430729495  0.0096632377734 -0.1937748124139 1.0
Se     1  0.3894178853635  0.2034380501873  0.1937748124139 1.0
Se     1  0.9602823528611  0.4802293498842 -0.3331594944493 1.0
Se     1  0.2934418473104 -0.1866111556665  0.3331594944493 1.0
Ag     2 -0.2499102832237 -0.0498529269027  0.1693267638954 1.0
Ag     2 -0.4192370471190 -0.2191796907980 -0.1693267638954 1.0
Ag     2 -0.2331835143818 -0.2804566523712 -0.4797655683195 1.0
Ag     2  0.2465820539377  0.1993089159483  0.4797655683195 1.0
Ag     2  0.4329696667102  0.3927413445085 -0.1679202023819 1.0
Ag     2 -0.3991101309079 -0.4393384531096  0.1679202023819 1.0
Ag     2 -0.2867286047619  0.0939374372613 -0.3528283060238 1.0
Ag     2  0.0660997012619  0.4467657432851  0.3528283060238 1.0
END
