TITL 4Ag2Se_TETRA_OPT-200811-112205-acbb95 0.0031 222.079927 -4.61183954E+004 0 0 12 (P21) n - 1
REM
REM Run started: Tue, 11 Aug 2020 12:26:40 +0100 in /lustre/scratch/uccabz1/launch_tmp/launcher_2020-08-11-10-22-04-032345
REM CASTEP 20.1 from code version af48c487+ pr-geom-scf-spinfix Tue Jun 2 15:39:59 2020 +0100
REM Functional PBE for solids (2008) Relativity Koelling-Harmon Dispersion off
REM Cut-off 300.0000 eV Grid scale 1.7500 Gmax 15.5288 1/A FBSC none
REM MP grid 3 3 3 Offset 0.000 0.000 0.000 No. kpts 10 Spacing 0.07
REM Total runtime: 3981.43 s
REM Overall efficiency: 92.7 %
REM
REM 4Ag2Se_TETRA_OPT.cell (db6eaae92e6a5f18c152ebab86a92a61)
REM
REM compiler GCC version 4.9.2
REM options -cpp -iprefix /lustre/shared/ucl/apps/gcc/4.9.2/bin/../lib/gcc/x86_64-unknown-linux-gnu/4.9.2/ -mtune=corei7 -march=x86-64 -g -Og
REM COMMAND_LINE
REM seed -423434602 -1857429462 1685411388 -1504352535 1208540646 -1254726285 1972048789 -298917541 -233804805 -1098961241 1620262804 965328146
REM
REM Se 3|2.1|7|7|9|40:41:32(qc=5)
REM Ag 3|2.2|7|7|9|40U:50:41:42(qc=5)
REM 
CELL 1.54180    4.81983    6.51864    7.12894   90.00000   90.00000   82.52780
LATT -1
SFAC Se Ag 
Se     1  0.0154788371528  0.3599866259429 -0.4320220799037 1.0
Se     1 -0.0154788371528 -0.3599866259429  0.0679779200963 1.0
Se     1  0.3936236780619 -0.1975465347769 -0.4843785947710 1.0
Se     1 -0.3936236780619  0.1975465347769  0.0156214052289 1.0
Ag     2  0.1176184018410  0.0981833078890 -0.1545144329938 1.0
Ag     2 -0.1176184018410 -0.0981833078890  0.3454855670062 1.0
Ag     2  0.4255289138622 -0.1601121753889  0.0942590945321 1.0
Ag     2 -0.4255289138622  0.1601121753889 -0.4057409054679 1.0
Ag     2 -0.4236864010385 -0.5301695836235  0.3071982528550 1.0
Ag     2  0.4236864010385  0.5301695836235 -0.1928017471450 1.0
Ag     2 -0.1294753821457 -0.2443645051716 -0.2773197397185 1.0
Ag     2  0.1294753821457  0.2443645051716  0.2226802602815 1.0
END
