TITL 4Ag2Se_TETRA-200803-170547-0cc166 -0.0484 258.840315 -4.61162356E+004 0 0 12 (P21) n - 1
REM
REM Run started: Mon, 03 Aug 2020 17:57:30 +0100 in /lustre/scratch/uccabz1/launch_tmp/launcher_2020-08-03-16-05-45-803688
REM CASTEP 20.1 from code version af48c487+ pr-geom-scf-spinfix Tue Jun 2 15:39:59 2020 +0100
REM Functional PBE for solids (2008) Relativity Koelling-Harmon Dispersion off
REM Cut-off 300.0000 eV Grid scale 1.7500 Gmax 15.5288 1/A FBSC none
REM MP grid 4 4 2 Offset 0.000 0.000 0.000 No. kpts 8 Spacing 0.07
REM Total runtime: 3408.36 s
REM Overall efficiency: 91.6667 %
REM
REM 4Ag2Se_TETRA.cell (4020362940262d3df87d4014b41eb05e)
REM
REM compiler GCC version 4.9.2
REM options -cpp -iprefix /lustre/shared/ucl/apps/gcc/4.9.2/bin/../lib/gcc/x86_64-unknown-linux-gnu/4.9.2/ -mtune=corei7 -march=x86-64 -g -Og
REM COMMAND_LINE
REM seed -1313955046 740725245 -794291682 1696636390 1487292301 1050590494 -392999311 1173613041 -350121528 230051135 680872028 767155323
REM
REM Se 3|2.1|7|7|9|40:41:32(qc=5)
REM Ag 3|2.2|7|7|9|40U:50:41:42(qc=5)
REM 
CELL 1.54180    4.62483    4.75238   11.77723   90.00000   89.48008   90.00000
LATT -1
SFAC Se Ag 
Se     1  0.3595908586320  0.3942258168408 -0.3490042972880 1.0
Se     1 -0.3595908586320 -0.1057741831592  0.3490042972880 1.0
Se     1  0.2275829677366 -0.3993493801544  0.0935221362901 1.0
Se     1 -0.2275829677366  0.1006506198456 -0.0935221362901 1.0
Ag     2  0.4129808096694 -0.1365803906995 -0.2154209655523 1.0
Ag     2 -0.4129808096694  0.3634196093005  0.2154209655523 1.0
Ag     2 -0.4134020497773  0.3698815394619  0.4516992806466 1.0
Ag     2  0.4134020497773 -0.1301184605381 -0.4516992806466 1.0
Ag     2  0.0873258528510  0.0398142448934  0.2094652312260 1.0
Ag     2 -0.0873258528510 -0.4601857551066 -0.2094652312260 1.0
Ag     2 -0.0841973766484  0.0352916696579 -0.3337440148044 1.0
Ag     2  0.0841973766484 -0.4647083303421  0.3337440148044 1.0
END
