TITL 4Ag2SE-200803-155105-85ac38 0.0665 213.248156 -4.61182507E+004 0 0 12 (P21/m) n - 1
REM
REM Run started: Mon, 03 Aug 2020 16:53:23 +0100 in /lustre/scratch/uccabz1/launch_tmp/launcher_2020-08-03-14-51-03-480818
REM CASTEP 20.1 from code version af48c487+ pr-geom-scf-spinfix Tue Jun 2 15:39:59 2020 +0100
REM Functional PBE for solids (2008) Relativity Koelling-Harmon Dispersion off
REM Cut-off 300.0000 eV Grid scale 1.7500 Gmax 15.5288 1/A FBSC none
REM MP grid 4 3 2 Offset 0.000 0.000 0.000 No. kpts 6 Spacing 0.07
REM Total runtime: 3924.57 s
REM Overall efficiency: 73.0833 %
REM
REM 4Ag2SE.cell (6404a18c6b5dc90313b5c56acf317f23)
REM
REM compiler GCC version 4.9.2
REM options -cpp -iprefix /lustre/shared/ucl/apps/gcc/4.9.2/bin/../lib/gcc/x86_64-unknown-linux-gnu/4.9.2/ -mtune=corei7 -march=x86-64 -g -Og
REM COMMAND_LINE
REM seed 911736520 1723973048 1625139364 -130346560 372562027 359202433 -474120094 1232574627 -561315739 -863469796 -1906256334 604846879
REM
REM Se 3|2.1|7|7|9|40:41:32(qc=5)
REM Ag 3|2.2|7|7|9|40U:50:41:42(qc=5)
REM 
CELL 1.54180    4.14753    5.82654    9.46968  111.27357   90.00000   90.00000
LATT -1
SFAC Se Ag 
Se     1  0.2014754881935 -0.2354695700615 -0.0980052121567 1.0
Se     1 -0.2985245118065  0.2354695700615  0.0980052121567 1.0
Se     1  0.2022867768823 -0.0084392701378  0.2857802432047 1.0
Se     1 -0.2977132231177  0.0084392701378 -0.2857802432047 1.0
Ag     2 -0.3003690868721 -0.4947603002367 -0.2531935015382 1.0
Ag     2  0.1996309131279  0.4947603002367  0.2531935015382 1.0
Ag     2 -0.3004733468112  0.3330894892213  0.4191409302627 1.0
Ag     2  0.1995266531888 -0.3330894892213 -0.4191409302627 1.0
Ag     2  0.1995875015194  0.3141036290697 -0.0744176960805 1.0
Ag     2 -0.3004124984806 -0.3141036290697  0.0744176960805 1.0
Ag     2  0.1996418670882  0.1808011493443 -0.4085563669766 1.0
Ag     2 -0.3003581329118 -0.1808011493443  0.4085563669766 1.0
END
