TITL 4Ag2Se_TETRA_OPT-200811-104948-bd85ad -0.0353 254.213520 -4.61182819E+004 0 0 12 (P21) n - 1
REM
REM Run started: Tue, 11 Aug 2020 11:18:25 +0100 in /lustre/scratch/uccabz1/launch_tmp/launcher_2020-08-11-09-49-47-314822
REM CASTEP 20.1 from code version af48c487+ pr-geom-scf-spinfix Tue Jun 2 15:39:59 2020 +0100
REM Functional PBE for solids (2008) Relativity Koelling-Harmon Dispersion off
REM Cut-off 300.0000 eV Grid scale 1.7500 Gmax 15.5288 1/A FBSC none
REM MP grid 4 2 2 Offset 0.000 0.000 0.000 No. kpts 4 Spacing 0.07
REM Total runtime: 1916.17 s
REM Overall efficiency: 76.625 %
REM
REM 4Ag2Se_TETRA_OPT.cell (db6eaae92e6a5f18c152ebab86a92a61)
REM
REM compiler GCC version 4.9.2
REM options -cpp -iprefix /lustre/shared/ucl/apps/gcc/4.9.2/bin/../lib/gcc/x86_64-unknown-linux-gnu/4.9.2/ -mtune=corei7 -march=x86-64 -g -Og
REM COMMAND_LINE
REM seed -222865320 154394154 230502009 257019210 667248868 1550548819 1778496665 1295988986 158176753 -1320885712 -1107478297 -1596139718
REM
REM Se 3|2.1|7|7|9|40:41:32(qc=5)
REM Ag 3|2.2|7|7|9|40U:50:41:42(qc=5)
REM 
CELL 1.54180    4.49076    7.28611    7.77259   90.00000   88.33622   90.00000
LATT -1
SFAC Se Ag 
Se     1 -0.1532679514510 -0.2923370857978 -0.4826992367811 1.0
Se     1  0.1532679514510  0.2076629142022  0.4826992367811 1.0
Se     1 -0.3242444592106  0.1514475817601 -0.0861941470323 1.0
Se     1  0.3242444592106 -0.3485524182399  0.0861941470323 1.0
Ag     2  0.2372222761022 -0.0985503881271  0.3139956491100 1.0
Ag     2 -0.2372222761022  0.4014496118729 -0.3139956491100 1.0
Ag     2 -0.3761755688400  0.0346222662950 -0.4373502040286 1.0
Ag     2  0.3761755688400 -0.4653777337050  0.4373502040286 1.0
Ag     2 -0.1385892525143  0.4613165733106  0.0403976310112 1.0
Ag     2  0.1385892525143 -0.0386834266894 -0.0403976310112 1.0
Ag     2  0.3546704180483  0.2532387525594  0.1761146700042 1.0
Ag     2 -0.3546704180483 -0.2467612474406 -0.1761146700042 1.0
END
