TITL 4Ag2SE-200803-160655-1f6aac 0.0434 221.416713 -4.61181584E+004 0 0 12 (C2/m) n - 1
REM
REM Run started: Mon, 03 Aug 2020 16:23:52 +0100 in /lustre/scratch/uccabz1/launch_tmp/launcher_2020-08-03-15-06-54-146153
REM CASTEP 20.1 from code version af48c487+ pr-geom-scf-spinfix Tue Jun 2 15:39:59 2020 +0100
REM Functional PBE for solids (2008) Relativity Koelling-Harmon Dispersion off
REM Cut-off 300.0000 eV Grid scale 1.7500 Gmax 15.5288 1/A FBSC none
REM MP grid 4 3 2 Offset 0.000 0.000 0.000 No. kpts 6 Spacing 0.07
REM Total runtime: 1109.43 s
REM Overall efficiency: 69.7143 %
REM
REM 4Ag2SE.cell (6404a18c6b5dc90313b5c56acf317f23)
REM
REM compiler GCC version 4.9.2
REM options -cpp -iprefix /lustre/shared/ucl/apps/gcc/4.9.2/bin/../lib/gcc/x86_64-unknown-linux-gnu/4.9.2/ -mtune=corei7 -march=x86-64 -g -Og
REM COMMAND_LINE
REM seed 945433716 -378004795 1713600261 1446551981 1626712779 -827315038 1072659749 -797961133 -1628215322 1787250389 -1748503659 829646719
REM
REM Se 3|2.1|7|7|9|40:41:32(qc=5)
REM Ag 3|2.2|7|7|9|40U:50:41:42(qc=5)
REM 
CELL 1.54180    4.62718    6.01314    8.01652   96.93999   90.00000   90.00000
LATT -1
SFAC Se Ag 
Se     1  0.4817274000000  0.3156110093965  0.1419488714206 1.0
Se     1  0.4817274000000 -0.3156110093965 -0.1419488714206 1.0
Se     1 -0.0182726000000  0.3156110093965 -0.3580511285794 1.0
Se     1 -0.0182726000000 -0.3156110093965  0.3580511285794 1.0
Ag     2  0.4817274000000 -0.1240925106627  0.2010094518899 1.0
Ag     2  0.4817274000000  0.1240925106627 -0.2010094518899 1.0
Ag     2 -0.0182726000000  0.2502835642558 -0.0224667213607 1.0
Ag     2 -0.0182726000000 -0.2502835642558  0.0224667213607 1.0
Ag     2  0.4817274000000  0.2502835642558  0.4775332786393 1.0
Ag     2  0.4817274000000 -0.2502835642558 -0.4775332786393 1.0
Ag     2 -0.0182726000000 -0.1240925106627 -0.2989905481101 1.0
Ag     2 -0.0182726000000  0.1240925106627  0.2989905481101 1.0
END
