TITL 4Ag2Se_TETRA_OPT-200811-100932-7fd24f -0.0305 212.907342 -4.61177223E+004 0 0 12 (P42/mcm) n - 1
REM
REM Run started: Tue, 11 Aug 2020 10:31:44 +0100 in /lustre/scratch/uccabz1/launch_tmp/launcher_2020-08-11-09-09-30-698479
REM CASTEP 20.1 from code version af48c487+ pr-geom-scf-spinfix Tue Jun 2 15:39:59 2020 +0100
REM Functional PBE for solids (2008) Relativity Koelling-Harmon Dispersion off
REM Cut-off 300.0000 eV Grid scale 1.7500 Gmax 15.5288 1/A FBSC none
REM MP grid 3 2 3 Offset 0.000 0.000 0.000 No. kpts 4 Spacing 0.07
REM Total runtime: 1506.18 s
REM Overall efficiency: 77 %
REM
REM 4Ag2Se_TETRA_OPT.cell (db6eaae92e6a5f18c152ebab86a92a61)
REM
REM compiler GCC version 4.9.2
REM options -cpp -iprefix /lustre/shared/ucl/apps/gcc/4.9.2/bin/../lib/gcc/x86_64-unknown-linux-gnu/4.9.2/ -mtune=corei7 -march=x86-64 -g -Og
REM COMMAND_LINE
REM seed -1389198912 -1509812342 -1114461914 647672450 -1323583800 1388041823 1192402363 652158455 -1644247880 1614179258 1213983457 1012843661
REM
REM Se 3|2.1|7|7|9|40:41:32(qc=5)
REM Ag 3|2.2|7|7|9|40U:50:41:42(qc=5)
REM 
CELL 1.54180    5.06755    8.28980    5.06814   90.00000   90.00000   90.00000
LATT -1
SFAC Se Ag 
Se     1  0.2589044304036  0.2497231290858  0.2607310548686 1.0
Se     1  0.2589044304036 -0.2497231290858 -0.2607310548686 1.0
Se     1 -0.2589044304036 -0.2497231290858  0.2607310548686 1.0
Se     1 -0.2589044304036  0.2497231290858 -0.2607310548686 1.0
Ag     2  0.2473509489081  0.4192269723548 -0.2468627444635 1.0
Ag     2  0.2473509489081 -0.4192269723548  0.2468627444635 1.0
Ag     2 -0.2473509489081 -0.4192269723548 -0.2468627444635 1.0
Ag     2 -0.2473509489081  0.4192269723548  0.2468627444635 1.0
Ag     2  0.2470837668738  0.0808322348113 -0.2457111732775 1.0
Ag     2  0.2470837668738 -0.0808322348113  0.2457111732775 1.0
Ag     2 -0.2470837668738 -0.0808322348113 -0.2457111732775 1.0
Ag     2 -0.2470837668738  0.0808322348113  0.2457111732775 1.0
END
