TITL 4Ag2Se_TETRA_OPT-200811-100352-cf1856 -0.0227 236.050835 -4.61181968E+004 0 0 12 (P1) n - 1
REM
REM Run started: Tue, 11 Aug 2020 11:43:16 +0100 in /lustre/scratch/uccabz1/launch_tmp/launcher_2020-08-11-09-03-50-927084
REM CASTEP 20.1 from code version af48c487+ pr-geom-scf-spinfix Tue Jun 2 15:39:59 2020 +0100
REM Functional PBE for solids (2008) Relativity Koelling-Harmon Dispersion off
REM Cut-off 300.0000 eV Grid scale 1.7500 Gmax 15.5288 1/A FBSC none
REM MP grid 4 2 2 Offset 0.000 0.000 0.000 No. kpts 8 Spacing 0.07
REM Total runtime: 6032.91 s
REM Overall efficiency: 87.3636 %
REM
REM 4Ag2Se_TETRA_OPT.cell (db6eaae92e6a5f18c152ebab86a92a61)
REM
REM compiler GCC version 4.9.2
REM options -cpp -iprefix /lustre/shared/ucl/apps/gcc/4.9.2/bin/../lib/gcc/x86_64-unknown-linux-gnu/4.9.2/ -mtune=corei7 -march=x86-64 -g -Og
REM COMMAND_LINE
REM seed 777384321 1894174755 -1155266788 1309669293 1095681227 -1101135674 -2131124537 72282602 -374003786 163612167 1020782540 69687815
REM
REM Se 3|2.1|7|7|9|40:41:32(qc=5)
REM Ag 3|2.2|7|7|9|40U:50:41:42(qc=5)
REM 
CELL 1.54180    4.31165    7.26550    7.59934   88.03913   96.36306   93.54211
LATT -1
SFAC Se Ag 
Se     1  0.1380536143141  0.2088919326721  0.2320939279990 1.0
Se     1 -0.2514972252105  0.2250914634184 -0.2038043066447 1.0
Se     1  0.2820462410823 -0.2351588519465 -0.1133211831931 1.0
Se     1 -0.1566102614842 -0.2918817357363  0.4103963779048 1.0
Ag     2  0.2000791961137  0.2335575288470 -0.4117077076709 1.0
Ag     2 -0.1315926722278 -0.4229328867929  0.0924016694926 1.0
Ag     2  0.3101713905351  0.3966379306028 -0.0541137928863 1.0
Ag     2 -0.3629898950126 -0.0377206462410 -0.4182422626006 1.0
Ag     2 -0.3318042901695  0.3528655577729  0.3740098634280 1.0
Ag     2 -0.2033171153444 -0.0483736813590  0.0301395985651 1.0
Ag     2  0.3365929521597 -0.1401479672591  0.2557850110061 1.0
Ag     2 -0.2963445347559 -0.4150591439784 -0.2823704954000 1.0
END
