TITL 4Ag2SE-200803-160658-f7207a 0.0246 226.426272 -4.61183189E+004 0 0 12 (Cc) n - 1
REM
REM Run started: Mon, 03 Aug 2020 16:42:59 +0100 in /lustre/scratch/uccabz1/launch_tmp/launcher_2020-08-03-15-06-56-962345
REM CASTEP 20.1 from code version af48c487+ pr-geom-scf-spinfix Tue Jun 2 15:39:59 2020 +0100
REM Functional PBE for solids (2008) Relativity Koelling-Harmon Dispersion off
REM Cut-off 300.0000 eV Grid scale 1.7500 Gmax 15.5288 1/A FBSC none
REM MP grid 3 3 3 Offset 0.000 0.000 0.000 No. kpts 10 Spacing 0.07
REM Total runtime: 2729.07 s
REM Overall efficiency: 92.7143 %
REM
REM 4Ag2SE.cell (6404a18c6b5dc90313b5c56acf317f23)
REM
REM compiler GCC version 4.9.2
REM options -cpp -iprefix /lustre/shared/ucl/apps/gcc/4.9.2/bin/../lib/gcc/x86_64-unknown-linux-gnu/4.9.2/ -mtune=corei7 -march=x86-64 -g -Og
REM COMMAND_LINE
REM seed -375327482 -621581516 777431752 1088226625 698047246 -2019390692 1834856378 1304546540 -666266107 1396191856 353381800 -588743901
REM
REM Se 3|2.1|7|7|9|40:41:32(qc=5)
REM Ag 3|2.2|7|7|9|40U:50:41:42(qc=5)
REM 
CELL 1.54180    5.98243    5.98243    7.28818   69.13668   69.13668   88.13179
LATT -1
SFAC Se Ag 
Se     1  0.3555787807774 -0.2126334013193  0.1919676020113 1.0
Se     1 -0.2126334013193  0.3555787807774 -0.3080323979887 1.0
Se     1 -0.2271049517537  0.1645186026373  0.2292192008231 1.0
Se     1  0.1645186026373 -0.2271049517537 -0.2707807991769 1.0
Ag     2  0.0185621552525 -0.4856064700731  0.2143546036406 1.0
Ag     2 -0.4856064700731  0.0185621552525 -0.2856453963594 1.0
Ag     2  0.2835860842609  0.1862033433331  0.3979148034061 1.0
Ag     2  0.1862033433331  0.2835860842609 -0.1020851965939 1.0
Ag     2 -0.0930386604747 -0.1734143911434  0.4840989920940 1.0
Ag     2 -0.1734143911434 -0.0930386604747 -0.0159010079060 1.0
Ag     2 -0.4561553208782  0.5237896293812 -0.0260583019750 1.0
Ag     2  0.5237896293812 -0.4561553208782  0.4739416980250 1.0
END
