TITL 4Ag2SE-200803-155114-8157e0 -0.0485 224.388343 -4.61186420E+004 0 0 12 (P21) n - 1
REM
REM Run started: Mon, 03 Aug 2020 16:46:54 +0100 in /lustre/scratch/uccabz1/launch_tmp/launcher_2020-08-03-14-51-12-322635
REM CASTEP 20.1 from code version af48c487+ pr-geom-scf-spinfix Tue Jun 2 15:39:59 2020 +0100
REM Functional PBE for solids (2008) Relativity Koelling-Harmon Dispersion off
REM Cut-off 300.0000 eV Grid scale 1.7500 Gmax 15.5288 1/A FBSC none
REM MP grid 4 3 2 Offset 0.000 0.000 0.000 No. kpts 6 Spacing 0.07
REM Total runtime: 3667.06 s
REM Overall efficiency: 72.6667 %
REM
REM 4Ag2SE.cell (6404a18c6b5dc90313b5c56acf317f23)
REM
REM compiler GCC version 4.9.2
REM options -cpp -iprefix /lustre/shared/ucl/apps/gcc/4.9.2/bin/../lib/gcc/x86_64-unknown-linux-gnu/4.9.2/ -mtune=corei7 -march=x86-64 -g -Og
REM COMMAND_LINE
REM seed 543384887 -2115208022 1416163309 1436826471 851437330 -2126913181 656620494 1114382298 -691741635 1796128626 1109155424 1997381630
REM
REM Se 3|2.1|7|7|9|40:41:32(qc=5)
REM Ag 3|2.2|7|7|9|40U:50:41:42(qc=5)
REM 
CELL 1.54180    4.36018    6.54499    8.04741   90.00000   90.00000  102.28999
LATT -1
SFAC Se Ag 
Se     1  0.1935913116138  0.3879351875091  0.3304243971136 1.0
Se     1 -0.1935913116138 -0.3879351875091 -0.1695756028864 1.0
Se     1  0.4211818119121  0.0363040000716 -0.0455630935301 1.0
Se     1 -0.4211818119121 -0.0363040000716  0.4544369064699 1.0
Ag     2  0.2973027109978 -0.2943462055036  0.1291044625031 1.0
Ag     2 -0.2973027109978  0.2943462055036 -0.3708955374969 1.0
Ag     2  0.0759450298117 -0.0164155804937 -0.3352609768244 1.0
Ag     2 -0.0759450298117  0.0164155804937  0.1647390231756 1.0
Ag     2  0.3158147553714  0.5952609389816 -0.3784243488145 1.0
Ag     2 -0.3158147553714 -0.5952609389816  0.1215756511855 1.0
Ag     2 -0.1430143717974 -0.3346334963073  0.3969042595523 1.0
Ag     2  0.1430143717974  0.3346334963073 -0.1030957404477 1.0
END
