TITL 4Ag2Se_TETRA-200803-165909-6dc0d9 -0.0186 229.360513 -4.61179912E+004 0 0 12 (P-1) n - 1
REM
REM Run started: Mon, 03 Aug 2020 17:54:49 +0100 in /lustre/scratch/uccabz1/launch_tmp/launcher_2020-08-03-15-59-07-460689
REM CASTEP 20.1 from code version af48c487+ pr-geom-scf-spinfix Tue Jun 2 15:39:59 2020 +0100
REM Functional PBE for solids (2008) Relativity Koelling-Harmon Dispersion off
REM Cut-off 300.0000 eV Grid scale 1.7500 Gmax 15.5288 1/A FBSC none
REM MP grid 3 3 3 Offset 0.000 0.000 0.000 No. kpts 14 Spacing 0.07
REM Total runtime: 3689.96 s
REM Overall efficiency: 92.9167 %
REM
REM 4Ag2Se_TETRA.cell (4020362940262d3df87d4014b41eb05e)
REM
REM compiler GCC version 4.9.2
REM options -cpp -iprefix /lustre/shared/ucl/apps/gcc/4.9.2/bin/../lib/gcc/x86_64-unknown-linux-gnu/4.9.2/ -mtune=corei7 -march=x86-64 -g -Og
REM COMMAND_LINE
REM seed 1050529574 362813078 1826698693 -830354351 1481174366 1537114508 -1319591576 -614533109 -319509221 946806928 -355041463 1782328664
REM
REM Se 3|2.1|7|7|9|40:41:32(qc=5)
REM Ag 3|2.2|7|7|9|40U:50:41:42(qc=5)
REM 
CELL 1.54180    6.48512    6.49149    5.44864   89.98099   89.53483   89.48622
LATT -1
SFAC Se Ag 
Se     1  0.2083646553158 -0.3987219658152  0.2831024067855 1.0
Se     1 -0.2083646553158  0.3987219658152 -0.2831024067855 1.0
Se     1  0.2509656442970  0.0167127018801 -0.2372239854624 1.0
Se     1 -0.2509656442970 -0.0167127018801  0.2372239854624 1.0
Ag     2 -0.5003271631694  0.2619928943457  0.0158510920172 1.0
Ag     2  0.5003271631694 -0.2619928943457 -0.0158510920172 1.0
Ag     2  0.1369469956200  0.0756943460695  0.2416948255315 1.0
Ag     2 -0.1369469956200 -0.0756943460695 -0.2416948255315 1.0
Ag     2 -0.4110218094869 -0.3068603069343  0.4927497091195 1.0
Ag     2  0.4110218094869  0.3068603069343 -0.4927497091195 1.0
Ag     2 -0.1437707589247  0.4231440541364  0.2109050419908 1.0
Ag     2  0.1437707589247 -0.4231440541364 -0.2109050419908 1.0
END
