TITL 4Ag2Se_TETRA_OPT-200811-091843-aef79c 0.0181 223.846191 -4.61185259E+004 0 0 12 (P1) n - 1
REM
REM Run started: Tue, 11 Aug 2020 11:15:55 +0100 in /lustre/scratch/uccabz1/launch_tmp/launcher_2020-08-11-08-18-41-889594
REM CASTEP 20.1 from code version af48c487+ pr-geom-scf-spinfix Tue Jun 2 15:39:59 2020 +0100
REM Functional PBE for solids (2008) Relativity Koelling-Harmon Dispersion off
REM Cut-off 300.0000 eV Grid scale 1.7500 Gmax 15.5288 1/A FBSC none
REM MP grid 4 2 3 Offset 0.000 0.000 0.000 No. kpts 12 Spacing 0.07
REM Total runtime: 7782.19 s
REM Overall efficiency: 79.75 %
REM
REM 4Ag2Se_TETRA_OPT.cell (db6eaae92e6a5f18c152ebab86a92a61)
REM
REM compiler GCC version 4.9.2
REM options -cpp -iprefix /lustre/shared/ucl/apps/gcc/4.9.2/bin/../lib/gcc/x86_64-unknown-linux-gnu/4.9.2/ -mtune=corei7 -march=x86-64 -g -Og
REM COMMAND_LINE
REM seed 92547723 -1450436451 -1167794444 1500038497 -807651 1681660533 -876363410 -1952625635 924210063 -1185733433 2069243100 664035313
REM
REM Se 3|2.1|7|7|9|40:41:32(qc=5)
REM Ag 3|2.2|7|7|9|40U:50:41:42(qc=5)
REM 
CELL 1.54180    4.19622    7.80547    6.87890   94.71931   87.63682   86.36017
LATT -1
SFAC Se Ag 
Se     1 -0.0612741256171 -0.3127217367934  0.4422820740692 1.0
Se     1  0.3872218372574  0.0289658981229 -0.0093387867709 1.0
Se     1 -0.2613490757625  0.1729238580593  0.4604510731801 1.0
Se     1  0.0578315818209  0.5159429437535 -0.1029713938751 1.0
Ag     2 -0.4844830559810 -0.2688774113019 -0.2429118645418 1.0
Ag     2 -0.0973732467686 -0.1641372498850  0.0953127897997 1.0
Ag     2  0.3711647241850 -0.0772977597991  0.3757453127556 1.0
Ag     2 -0.3815514284302  0.2951494689362 -0.1567336448954 1.0
Ag     2  0.0144675527321  0.3134615676489  0.1830105033853 1.0
Ag     2  0.4892019738982 -0.4263014307713  0.1745537844998 1.0
Ag     2 -0.0126706047349 -0.0243029712882 -0.2812426166214 1.0
Ag     2  0.3234738674007  0.4284671233179 -0.4762807309851 1.0
END
