TITL 4Ag2SE-200803-155507-271634 -0.0469 222.944747 -4.61185204E+004 0 0 12 (P-1) n - 1
REM
REM Run started: Mon, 03 Aug 2020 17:53:09 +0100 in /lustre/scratch/uccabz1/launch_tmp/launcher_2020-08-03-14-55-06-336642
REM CASTEP 20.1 from code version af48c487+ pr-geom-scf-spinfix Tue Jun 2 15:39:59 2020 +0100
REM Functional PBE for solids (2008) Relativity Koelling-Harmon Dispersion off
REM Cut-off 300.0000 eV Grid scale 1.7500 Gmax 15.5288 1/A FBSC none
REM MP grid 4 3 2 Offset 0.000 0.000 0.000 No. kpts 12 Spacing 0.07
REM Total runtime: 7291.26 s
REM Overall efficiency: 74 %
REM
REM 4Ag2SE.cell (6404a18c6b5dc90313b5c56acf317f23)
REM
REM compiler GCC version 4.9.2
REM options -cpp -iprefix /lustre/shared/ucl/apps/gcc/4.9.2/bin/../lib/gcc/x86_64-unknown-linux-gnu/4.9.2/ -mtune=corei7 -march=x86-64 -g -Og
REM COMMAND_LINE
REM seed -1538421262 -1511403497 1635544751 1703366913 -682857929 -455526373 -1300447312 2112399176 -1922600587 1151822970 1979253129 -1221049044
REM
REM Se 3|2.1|7|7|9|40:41:32(qc=5)
REM Ag 3|2.2|7|7|9|40U:50:41:42(qc=5)
REM 
CELL 1.54180    4.27161    6.72526   10.10691  126.53820  103.75394   89.88263
LATT -1
SFAC Se Ag 
Se     1 -0.3803750999571  0.1545156869960  0.3845761509991 1.0
Se     1  0.3803750999571 -0.1545156869960 -0.3845761509991 1.0
Se     1 -0.2542048557326 -0.4229566378558 -0.1520804525238 1.0
Se     1  0.2542048557326  0.4229566378558  0.1520804525238 1.0
Ag     2 -0.3718567870058  0.2680057288020 -0.0617558104298 1.0
Ag     2  0.3718567870058 -0.2680057288020  0.0617558104298 1.0
Ag     2  0.2162649634468  0.4242688902907 -0.4105455854835 1.0
Ag     2 -0.2162649634468 -0.4242688902907  0.4105455854835 1.0
Ag     2  0.0550200430300 -0.1386371874906  0.3290049165061 1.0
Ag     2 -0.0550200430300  0.1386371874906 -0.3290049165061 1.0
Ag     2 -0.1130371622371  0.0865994091657  0.1418774606419 1.0
Ag     2  0.1130371622371 -0.0865994091657 -0.1418774606419 1.0
END
