TITL 4Ag2SE-200803-155107-1ded7f -0.0310 242.747574 -4.61171692E+004 0 0 12 (Cm) n - 1
REM
REM Run started: Mon, 03 Aug 2020 17:25:11 +0100 in /lustre/scratch/uccabz1/launch_tmp/launcher_2020-08-03-14-51-05-434194
REM CASTEP 20.1 from code version af48c487+ pr-geom-scf-spinfix Tue Jun 2 15:39:59 2020 +0100
REM Functional PBE for solids (2008) Relativity Koelling-Harmon Dispersion off
REM Cut-off 300.0000 eV Grid scale 1.7500 Gmax 15.5288 1/A FBSC none
REM MP grid 4 3 3 Offset 0.000 0.000 0.000 No. kpts 12 Spacing 0.07
REM Total runtime: 5754.14 s
REM Overall efficiency: 72.8 %
REM
REM 4Ag2SE.cell (6404a18c6b5dc90313b5c56acf317f23)
REM
REM compiler GCC version 4.9.2
REM options -cpp -iprefix /lustre/shared/ucl/apps/gcc/4.9.2/bin/../lib/gcc/x86_64-unknown-linux-gnu/4.9.2/ -mtune=corei7 -march=x86-64 -g -Og
REM COMMAND_LINE
REM seed 892936085 -1493122174 913057369 -1267533034 -1925956667 1538941331 -1079138569 -967091582 833835850 -59498607 -1005026452 1790839036
REM
REM Se 3|2.1|7|7|9|40:41:32(qc=5)
REM Ag 3|2.2|7|7|9|40U:50:41:42(qc=5)
REM 
CELL 1.54180    4.64914    8.02161    8.02161  124.36832   94.90594   94.90594
LATT -1
SFAC Se Ag 
Se     1 -0.2065398493286 -0.5187535460988 -0.1836237004580 1.0
Se     1 -0.2065398493286 -0.1836237004580 -0.5187535460988 1.0
Se     1  0.3030027370437  0.0316765334412  0.2782704876531 1.0
Se     1  0.3030027370437  0.2782704876531  0.0316765334412 1.0
Ag     2  0.2950180269020 -0.2501950263575 -0.4416865244954 1.0
Ag     2  0.2950180269020 -0.4416865244954 -0.2501950263575 1.0
Ag     2 -0.2590244332588 -0.1359018381843  0.0657977097978 1.0
Ag     2 -0.2590244332588  0.0657977097978 -0.1359018381843 1.0
Ag     2 -0.1372912654341  0.4361820685299  0.2371125916524 1.0
Ag     2 -0.1372912654341  0.2371125916524  0.4361820685299 1.0
Ag     2  0.2893442840756 -0.3459994379382  0.1517553824577 1.0
Ag     2  0.2893442840756  0.1517553824577 -0.3459994379382 1.0
END
