TITL 4Ag2SE-200803-155114-f82142 0.0002 226.384505 -4.61180383E+004 0 0 12 (C2) n - 1
REM
REM Run started: Mon, 03 Aug 2020 16:43:03 +0100 in /lustre/scratch/uccabz1/launch_tmp/launcher_2020-08-03-14-51-12-528591
REM CASTEP 20.1 from code version af48c487+ pr-geom-scf-spinfix Tue Jun 2 15:39:59 2020 +0100
REM Functional PBE for solids (2008) Relativity Koelling-Harmon Dispersion off
REM Cut-off 300.0000 eV Grid scale 1.7500 Gmax 15.5288 1/A FBSC none
REM MP grid 3 3 3 Offset 0.000 0.000 0.000 No. kpts 10 Spacing 0.07
REM Total runtime: 3414.5 s
REM Overall efficiency: 92.875 %
REM
REM 4Ag2SE.cell (6404a18c6b5dc90313b5c56acf317f23)
REM
REM compiler GCC version 4.9.2
REM options -cpp -iprefix /lustre/shared/ucl/apps/gcc/4.9.2/bin/../lib/gcc/x86_64-unknown-linux-gnu/4.9.2/ -mtune=corei7 -march=x86-64 -g -Og
REM COMMAND_LINE
REM seed -604779121 250993797 1145281174 1343043661 1111398158 1292242724 1274453863 -1084860030 -211998436 -341100059 93387860 125280867
REM
REM Se 3|2.1|7|7|9|40:41:32(qc=5)
REM Ag 3|2.2|7|7|9|40U:50:41:42(qc=5)
REM 
CELL 1.54180    6.16281    6.77140    6.72175  112.10204   90.00000  117.06891
LATT -1
SFAC Se Ag 
Se     1 -0.0320256707651  0.1422554660069  0.3141282098501 1.0
Se     1 -0.1742811367720 -0.1422554660069 -0.3141282098501 1.0
Se     1 -0.4467051570073  0.3342901527685  0.1004873870588 1.0
Se     1  0.2190046902243 -0.3342901527685 -0.1004873870588 1.0
Ag     2 -0.2195452545185 -0.3099841616424 -0.0138080642172 1.0
Ag     2  0.0904389071240  0.3099841616424  0.0138080642172 1.0
Ag     2  0.4091748850228  0.4310660987434 -0.3915607976476 1.0
Ag     2 -0.0218912137206 -0.4310660987434  0.3915607976476 1.0
Ag     2  0.3137562849376  0.0037147117534 -0.2897276333812 1.0
Ag     2  0.3100415731843 -0.0037147117534  0.2897276333812 1.0
Ag     2  0.4976887163138 -0.2733597596628  0.3436888649135 1.0
Ag     2 -0.2289515240234  0.2733597596628 -0.3436888649135 1.0
END
