TITL 4Ag2Se_TETRA-200803-163432-633301 -0.0157 243.635422 -4.61169994E+004 0 0 12 (Pmna) n - 1
REM
REM Run started: Mon, 03 Aug 2020 16:58:57 +0100 in /lustre/scratch/uccabz1/launch_tmp/launcher_2020-08-03-15-34-31-012363
REM CASTEP 20.1 from code version af48c487+ pr-geom-scf-spinfix Tue Jun 2 15:39:59 2020 +0100
REM Functional PBE for solids (2008) Relativity Koelling-Harmon Dispersion off
REM Cut-off 300.0000 eV Grid scale 1.7500 Gmax 15.5288 1/A FBSC none
REM MP grid 2 3 3 Offset 0.000 0.000 0.000 No. kpts 4 Spacing 0.07
REM Total runtime: 1613.6 s
REM Overall efficiency: 74.6667 %
REM
REM 4Ag2Se_TETRA.cell (4020362940262d3df87d4014b41eb05e)
REM
REM compiler GCC version 4.9.2
REM options -cpp -iprefix /lustre/shared/ucl/apps/gcc/4.9.2/bin/../lib/gcc/x86_64-unknown-linux-gnu/4.9.2/ -mtune=corei7 -march=x86-64 -g -Og
REM COMMAND_LINE
REM seed 735870538 54783610 -1931989366 -1683786050 -735466113 -1862577395 -1185478608 2137123868 -1264194285 1751017523 -106271681 -761603675
REM
REM Se 3|2.1|7|7|9|40:41:32(qc=5)
REM Ag 3|2.2|7|7|9|40U:50:41:42(qc=5)
REM 
CELL 1.54180    7.49286    5.96363    5.45233   90.00000   90.00000   90.00000
LATT -1
SFAC Se Ag 
Se     1 -0.2500000000000 -0.4846821230406  0.2084171013206 1.0
Se     1  0.2500000000000  0.4846821230406  0.2084171013206 1.0
Se     1  0.2500000000000  0.0153178769594 -0.3235837013206 1.0
Se     1 -0.2500000000000 -0.0153178769594 -0.3235837013206 1.0
Ag     2  0.2500000000000  0.4820144375440 -0.2551436965992 1.0
Ag     2 -0.2500000000000 -0.4820144375440 -0.2551436965992 1.0
Ag     2 -0.0149888685417  0.2500000000000  0.4424167000000 1.0
Ag     2  0.0149888685417 -0.2500000000000  0.4424167000000 1.0
Ag     2 -0.2500000000000 -0.0179855624560  0.1399770965992 1.0
Ag     2  0.2500000000000  0.0179855624560  0.1399770965992 1.0
Ag     2  0.4850111314583 -0.2500000000000  0.4424167000000 1.0
Ag     2 -0.4850111314583  0.2500000000000  0.4424167000000 1.0
END
