TITL 4Ag2Se_TETRA-200803-162032-4e82f2 -0.2061 257.133839 -4.61164281E+004 0 0 12 (Pmmn) n - 1
REM
REM Run started: Mon, 03 Aug 2020 16:44:15 +0100 in /lustre/scratch/uccabz1/launch_tmp/launcher_2020-08-03-15-20-30-822084
REM CASTEP 20.1 from code version af48c487+ pr-geom-scf-spinfix Tue Jun 2 15:39:59 2020 +0100
REM Functional PBE for solids (2008) Relativity Koelling-Harmon Dispersion off
REM Cut-off 300.0000 eV Grid scale 1.7500 Gmax 15.5288 1/A FBSC none
REM MP grid 3 4 2 Offset 0.000 0.000 0.000 No. kpts 6 Spacing 0.07
REM Total runtime: 1562.16 s
REM Overall efficiency: 70.4167 %
REM
REM 4Ag2Se_TETRA.cell (4020362940262d3df87d4014b41eb05e)
REM
REM compiler GCC version 4.9.2
REM options -cpp -iprefix /lustre/shared/ucl/apps/gcc/4.9.2/bin/../lib/gcc/x86_64-unknown-linux-gnu/4.9.2/ -mtune=corei7 -march=x86-64 -g -Og
REM COMMAND_LINE
REM seed -953938062 -1670644768 67406883 -873385929 1762077060 111258395 -600485442 465458833 1751676901 344865206 -2146442756 1508222714
REM
REM Se 3|2.1|7|7|9|40:41:32(qc=5)
REM Ag 3|2.2|7|7|9|40U:50:41:42(qc=5)
REM 
CELL 1.54180    5.09526    4.59667   10.97868   90.00000   90.00000   90.04993
LATT -1
SFAC Se Ag 
Se     1  0.4911379789674 -0.2643626957310  0.1721257642122 1.0
Se     1  0.4911379789674 -0.2643626957310 -0.1721257642122 1.0
Se     1 -0.0336920789674  0.2370242957310  0.3278742357878 1.0
Se     1 -0.0336920789674  0.2370242957310 -0.3278742357878 1.0
Ag     2 -0.0260016431308 -0.2701932054887  0.1259381806327 1.0
Ag     2 -0.0260016431308 -0.2701932054887 -0.1259381806327 1.0
Ag     2  0.2753857846999  0.2335574883432 -0.1233076780091 1.0
Ag     2  0.2753857846999  0.2335574883432  0.1233076780091 1.0
Ag     2  0.1820601153001 -0.2608958883433 -0.3766923219909 1.0
Ag     2  0.1820601153001 -0.2608958883433  0.3766923219909 1.0
Ag     2  0.4834475431308  0.2428548054887  0.3740618193673 1.0
Ag     2  0.4834475431308  0.2428548054887 -0.3740618193673 1.0
END
