TITL 4Ag2Se_TETRA_OPT-200811-113832-b9395b 0.0385 221.458516 -4.61185502E+004 0 0 12 (P1) n - 1
REM
REM Run started: Tue, 11 Aug 2020 13:43:00 +0100 in /lustre/scratch/uccabz1/launch_tmp/launcher_2020-08-11-12-21-44-590584
REM CASTEP 20.1 from code version af48c487+ pr-geom-scf-spinfix Tue Jun 2 15:39:59 2020 +0100
REM Functional PBE for solids (2008) Relativity Koelling-Harmon Dispersion off
REM Cut-off 300.0000 eV Grid scale 1.7500 Gmax 15.5288 1/A FBSC none
REM MP grid 4 2 2 Offset 0.000 0.000 0.000 No. kpts 8 Spacing 0.07
REM Total runtime: 1971.12 s
REM Overall efficiency: 82.2 %
REM
REM
REM
REM compiler GCC version 4.9.2
REM options -cpp -iprefix /lustre/shared/ucl/apps/gcc/4.9.2/bin/../lib/gcc/x86_64-unknown-linux-gnu/4.9.2/ -mtune=corei7 -march=x86-64 -g -Og
REM COMMAND_LINE
REM seed 928910671 1650411488 -1595642204 1227334778 1214899872 -13710587 -1661309401 -2107266179 1523648855 -240298613 -1072628243 -1884362200
REM
REM Se 3|2.1|7|7|9|40:41:32(qc=5)
REM Ag 3|2.2|7|7|9|40U:50:41:42(qc=5)
REM 
CELL 1.54180    4.26403    7.22973    7.49504   91.55924  106.49542   89.93588
LATT -1
SFAC Se Ag 
Se     1  0.2152294551188  0.4305493677531 -0.1456372424479 1.0
Se     1 -0.0447258618927 -0.4021423041980  0.3207594400828 1.0
Se     1  0.4971186917333  0.0374570938760  0.4101660027502 1.0
Se     1 -0.2797479001184 -0.1804176931180 -0.1417594613523 1.0
Ag     2  0.0437046610580  0.2731580038635  0.4956006775438 1.0
Ag     2 -0.5854416880942  0.3374181554172  0.2110246069278 1.0
Ag     2  0.2550262191466  0.0580951252819 -0.0749666701064 1.0
Ag     2 -0.3254527359540  0.2340245887882 -0.2349158803333 1.0
Ag     2  0.3514689525473 -0.2746485459730  0.1162677632923 1.0
Ag     2 -0.4260838197749 -0.4351138735008 -0.4366238156253 1.0
Ag     2  0.0909736975850 -0.1547235922487 -0.4016452846147 1.0
Ag     2 -0.1173556713548  0.0259396740588  0.1768728638830 1.0
END
