TITL 4Ag2Se_TETRA-200803-165239-b99002 0.0940 231.617043 -4.61177127E+004 0 0 12 (Cmcm) n - 1
REM
REM Run started: Mon, 03 Aug 2020 17:13:46 +0100 in /lustre/scratch/uccabz1/launch_tmp/launcher_2020-08-03-15-52-37-905522
REM CASTEP 20.1 from code version af48c487+ pr-geom-scf-spinfix Tue Jun 2 15:39:59 2020 +0100
REM Functional PBE for solids (2008) Relativity Koelling-Harmon Dispersion off
REM Cut-off 300.0000 eV Grid scale 1.7500 Gmax 15.5288 1/A FBSC none
REM MP grid 3 2 4 Offset 0.000 0.000 0.000 No. kpts 4 Spacing 0.07
REM Total runtime: 1390.25 s
REM Overall efficiency: 74.3333 %
REM
REM 4Ag2Se_TETRA.cell (4020362940262d3df87d4014b41eb05e)
REM
REM compiler GCC version 4.9.2
REM options -cpp -iprefix /lustre/shared/ucl/apps/gcc/4.9.2/bin/../lib/gcc/x86_64-unknown-linux-gnu/4.9.2/ -mtune=corei7 -march=x86-64 -g -Og
REM COMMAND_LINE
REM seed 279339528 -1427653655 -84064299 -562913972 -497965486 -1442826309 -2100980159 -2013455405 -2046669159 -1750469689 923121754 -1827926144
REM
REM Se 3|2.1|7|7|9|40:41:32(qc=5)
REM Ag 3|2.2|7|7|9|40U:50:41:42(qc=5)
REM 
CELL 1.54180    6.54509    7.82341    4.52333   90.00000   90.00000   90.00000
LATT -1
SFAC Se Ag 
Se     1 -0.2557277071448 -0.2660684000000 -0.2500000000000 1.0
Se     1  0.2557277071448 -0.2660684000000  0.2500000000000 1.0
Se     1  0.2442722928552  0.2339316000000 -0.2500000000000 1.0
Se     1 -0.2442722928552  0.2339316000000  0.2500000000000 1.0
Ag     2 -0.3633645411057  0.4131979787874 -0.2500000000000 1.0
Ag     2  0.3633645411057  0.4131979787874  0.2500000000000 1.0
Ag     2  0.1366354588943 -0.0868020212126 -0.2500000000000 1.0
Ag     2 -0.1366354588943 -0.0868020212126  0.2500000000000 1.0
Ag     2  0.1366354588943 -0.4453347787874 -0.2500000000000 1.0
Ag     2 -0.1366354588943 -0.4453347787874  0.2500000000000 1.0
Ag     2 -0.3633645411057  0.0546652212126 -0.2500000000000 1.0
Ag     2  0.3633645411057  0.0546652212126  0.2500000000000 1.0
END
