TITL 4Ag2Se_TETRA_OPT-200811-093720-434b5e 0.2666 236.389658 -4.61182854E+004 0 0 12 (P1) n - 1
REM
REM Run started: Tue, 11 Aug 2020 12:22:30 +0100 in /lustre/scratch/uccabz1/launch_tmp/launcher_2020-08-11-08-37-19-021104
REM CASTEP 20.1 from code version af48c487+ pr-geom-scf-spinfix Tue Jun 2 15:39:59 2020 +0100
REM Functional PBE for solids (2008) Relativity Koelling-Harmon Dispersion off
REM Cut-off 300.0000 eV Grid scale 1.7500 Gmax 15.5288 1/A FBSC none
REM MP grid 3 3 3 Offset 0.000 0.000 0.000 No. kpts 14 Spacing 0.07
REM Total runtime: 10906.2 s
REM Overall efficiency: 95.75 %
REM
REM 4Ag2Se_TETRA_OPT.cell (db6eaae92e6a5f18c152ebab86a92a61)
REM
REM compiler GCC version 4.9.2
REM options -cpp -iprefix /lustre/shared/ucl/apps/gcc/4.9.2/bin/../lib/gcc/x86_64-unknown-linux-gnu/4.9.2/ -mtune=corei7 -march=x86-64 -g -Og
REM COMMAND_LINE
REM seed 569497530 -1145857072 700120102 1797270909 -2003654912 1287639896 -1747373708 -1015210270 -1153753528 -1987006337 -1824094125 -1967423617
REM
REM Se 3|2.1|7|7|9|40:41:32(qc=5)
REM Ag 3|2.2|7|7|9|40U:50:41:42(qc=5)
REM 
CELL 1.54180    5.27799    6.58852    6.83465   85.07065   86.70183   89.23984
LATT -1
SFAC Se Ag 
Se     1  0.2737435364169 -0.2285566632625 -0.0309604687272 1.0
Se     1 -0.3431429953813 -0.2654640615952  0.4728633825972 1.0
Se     1  0.1659520114181  0.1016766212514  0.4286280946854 1.0
Se     1 -0.3535447945663  0.2581242740018 -0.0031534039774 1.0
Ag     2  0.0287532114230  0.0833209330843 -0.1698372317155 1.0
Ag     2 -0.5121452183305  0.3975436880207  0.3449402660691 1.0
Ag     2  0.1363200824073 -0.2723022766774  0.3377166216249 1.0
Ag     2 -0.1786579641550 -0.3300206743313 -0.1463544258807 1.0
Ag     2  0.3609263596979  0.4767655896098 -0.2627787260614 1.0
Ag     2 -0.4628376177258  0.0654158667357 -0.3260705023242 1.0
Ag     2 -0.0866191148505  0.3977784706173 -0.4475667170199 1.0
Ag     2  0.0860037036462  0.3808993325453  0.1170349107298 1.0
END
