TITL 4Ag2Se_TETRA-200803-164913-ada34b -0.1314 225.200550 -4.61169869E+004 0 0 12 (C2221) n - 1
REM
REM Run started: Mon, 03 Aug 2020 17:30:45 +0100 in /lustre/scratch/uccabz1/launch_tmp/launcher_2020-08-03-15-49-11-545709
REM CASTEP 20.1 from code version af48c487+ pr-geom-scf-spinfix Tue Jun 2 15:39:59 2020 +0100
REM Functional PBE for solids (2008) Relativity Koelling-Harmon Dispersion off
REM Cut-off 300.0000 eV Grid scale 1.7500 Gmax 15.5288 1/A FBSC none
REM MP grid 3 3 3 Offset 0.000 0.000 0.000 No. kpts 8 Spacing 0.07
REM Total runtime: 2751.95 s
REM Overall efficiency: 91.3333 %
REM
REM 4Ag2Se_TETRA.cell (4020362940262d3df87d4014b41eb05e)
REM
REM compiler GCC version 4.9.2
REM options -cpp -iprefix /lustre/shared/ucl/apps/gcc/4.9.2/bin/../lib/gcc/x86_64-unknown-linux-gnu/4.9.2/ -mtune=corei7 -march=x86-64 -g -Og
REM COMMAND_LINE
REM seed -2054648631 -73916509 -1438306449 159520146 40045502 1153048542 788313123 -1022288899 -791670318 925074521 688532893 -1635110526
REM
REM Se 3|2.1|7|7|9|40:41:32(qc=5)
REM Ag 3|2.2|7|7|9|40U:50:41:42(qc=5)
REM 
CELL 1.54180    5.73175    6.31869    6.31869  100.23833   90.00000   90.00000
LATT -1
SFAC Se Ag 
Se     1  0.4491622638987  0.4085411424311  0.1658673358362 1.0
Se     1 -0.4491738638987 -0.1658792358362 -0.4085530424311 1.0
Se     1  0.0508261361013  0.1275746358362  0.4468338424311 1.0
Se     1 -0.0508377361013 -0.4468457424311 -0.1275865358362 1.0
Ag     2  0.2478640245788  0.1253702771051 -0.1356023466251 1.0
Ag     2 -0.2478756245788  0.1355904466251 -0.1253821771051 1.0
Ag     2  0.0708780301865 -0.2406567206415 -0.4222670293724 1.0
Ag     2 -0.0708896301865  0.4222551293724  0.2406448206415 1.0
Ag     2 -0.4291219698135  0.2023521206415  0.4605478293724 1.0
Ag     2  0.4291103698135 -0.4605597293724 -0.2023640206415 1.0
Ag     2 -0.2521359754212 -0.1636748771051  0.1738831466251 1.0
Ag     2  0.2521243754212 -0.1738950466251  0.1636629771051 1.0
END
