TITL 4Ag2Se_TETRA-200803-164502-c8f2cb -0.0650 228.613505 -4.61167656E+004 0 0 12 (Cmc21) n - 1
REM
REM Run started: Mon, 03 Aug 2020 17:35:20 +0100 in /lustre/scratch/uccabz1/launch_tmp/launcher_2020-08-03-15-45-00-963877
REM CASTEP 20.1 from code version af48c487+ pr-geom-scf-spinfix Tue Jun 2 15:39:59 2020 +0100
REM Functional PBE for solids (2008) Relativity Koelling-Harmon Dispersion off
REM Cut-off 300.0000 eV Grid scale 1.7500 Gmax 15.5288 1/A FBSC none
REM MP grid 3 3 3 Offset 0.000 0.000 0.000 No. kpts 8 Spacing 0.07
REM Total runtime: 3311.55 s
REM Overall efficiency: 92.6667 %
REM
REM 4Ag2Se_TETRA.cell (4020362940262d3df87d4014b41eb05e)
REM
REM compiler GCC version 4.9.2
REM options -cpp -iprefix /lustre/shared/ucl/apps/gcc/4.9.2/bin/../lib/gcc/x86_64-unknown-linux-gnu/4.9.2/ -mtune=corei7 -march=x86-64 -g -Og
REM COMMAND_LINE
REM seed -1219921381 1791078363 2039456080 414980857 1714543130 -91728151 1961685291 -1756420343 87333783 -385215971 651851820 -1754502167
REM
REM Se 3|2.1|7|7|9|40:41:32(qc=5)
REM Ag 3|2.2|7|7|9|40U:50:41:42(qc=5)
REM 
CELL 1.54180    5.62925    6.66595    6.66595  113.94164   90.00000   90.00000
LATT -1
SFAC Se Ag 
Se     1 -0.3623758692008  0.0661741937754 -0.2505717892411 1.0
Se     1 -0.3623758692008 -0.2505717892411  0.0661741937754 1.0
Se     1  0.1376241307992  0.0908477062246  0.4075936892411 1.0
Se     1  0.1376241307992  0.4075936892411  0.0908477062246 1.0
Ag     2 -0.1263538789025 -0.2769083399318  0.4768399427254 1.0
Ag     2 -0.1263538789025  0.4768399427254 -0.2769083399318 1.0
Ag     2  0.1692685481033  0.0167404046858 -0.2250318927732 1.0
Ag     2  0.1692685481033 -0.2250318927732  0.0167404046858 1.0
Ag     2 -0.3307314518967  0.3820537927732  0.1402814953142 1.0
Ag     2 -0.3307314518967  0.1402814953142  0.3820537927732 1.0
Ag     2  0.3736461210975 -0.3198180427254  0.4339302399318 1.0
Ag     2  0.3736461210975  0.4339302399318 -0.3198180427254 1.0
END
