TITL 4Ag2SE-200803-160828-74ebf3 -0.0131 211.807511 -4.61181812E+004 0 0 12 (Fdd2) n - 1
REM
REM Run started: Mon, 03 Aug 2020 18:44:07 +0100 in /lustre/scratch/uccabz1/launch_tmp/launcher_2020-08-03-15-08-26-512704
REM CASTEP 20.1 from code version af48c487+ pr-geom-scf-spinfix Tue Jun 2 15:39:59 2020 +0100
REM Functional PBE for solids (2008) Relativity Koelling-Harmon Dispersion off
REM Cut-off 300.0000 eV Grid scale 1.7500 Gmax 15.5288 1/A FBSC none
REM MP grid 4 4 2 Offset 0.000 0.000 0.000 No. kpts 16 Spacing 0.07
REM Total runtime: 9777.15 s
REM Overall efficiency: 92.3846 %
REM
REM 4Ag2SE.cell (6404a18c6b5dc90313b5c56acf317f23)
REM
REM compiler GCC version 4.9.2
REM options -cpp -iprefix /lustre/shared/ucl/apps/gcc/4.9.2/bin/../lib/gcc/x86_64-unknown-linux-gnu/4.9.2/ -mtune=corei7 -march=x86-64 -g -Og
REM COMMAND_LINE
REM seed -1043375227 1548448577 -84675343 -754947750 -737814074 724381343 -86596148 -350881395 -76740100 726826646 -422256851 -1968006088
REM
REM Se 3|2.1|7|7|9|40:41:32(qc=5)
REM Ag 3|2.2|7|7|9|40U:50:41:42(qc=5)
REM 
CELL 1.54180    5.01105    4.94217   10.77552  109.64461   90.00000  120.46216
LATT -1
SFAC Se Ag 
Se     1  0.3566244201063 -0.0227018688360  0.0209918396199 1.0
Se     1  0.1206736110576 -0.0227018688360 -0.4790081603801 1.0
Se     1 -0.2649386251418  0.2270919773638 -0.2298076127989 1.0
Se     1 -0.0079694974944  0.2270919773638  0.2701923872011 1.0
Ag     2  0.0519478124515 -0.1641062553717 -0.2532210194907 1.0
Ag     2  0.2839458321768 -0.1641062553717  0.2467789805093 1.0
Ag     2 -0.2969130603264 -0.3652278827037  0.0489870138247 1.0
Ag     2 -0.5683149223774 -0.3652278827037 -0.4510129861753 1.0
Ag     2 -0.3593958906566  0.5489550059039  0.2994784928347 1.0
Ag     2  0.4083507965606  0.5489550059039 -0.2005215071653 1.0
Ag     2  0.0052504097426  0.2466235236437 -0.0033778139896 1.0
Ag     2 -0.2586269860988  0.2466235236437  0.4966221860104 1.0
END
