TITL 4Ag2Se_TETRA-200803-164954-062da3 -0.1045 231.170332 -4.61170752E+004 0 0 12 (Cc) n - 1
REM
REM Run started: Mon, 03 Aug 2020 17:28:02 +0100 in /lustre/scratch/uccabz1/launch_tmp/launcher_2020-08-03-15-49-52-662993
REM CASTEP 20.1 from code version af48c487+ pr-geom-scf-spinfix Tue Jun 2 15:39:59 2020 +0100
REM Functional PBE for solids (2008) Relativity Koelling-Harmon Dispersion off
REM Cut-off 300.0000 eV Grid scale 1.7500 Gmax 15.5288 1/A FBSC none
REM MP grid 3 3 3 Offset 0.000 0.000 0.000 No. kpts 10 Spacing 0.07
REM Total runtime: 2518.03 s
REM Overall efficiency: 90.75 %
REM
REM 4Ag2Se_TETRA.cell (4020362940262d3df87d4014b41eb05e)
REM
REM compiler GCC version 4.9.2
REM options -cpp -iprefix /lustre/shared/ucl/apps/gcc/4.9.2/bin/../lib/gcc/x86_64-unknown-linux-gnu/4.9.2/ -mtune=corei7 -march=x86-64 -g -Og
REM COMMAND_LINE
REM seed -295877653 723685300 1290452911 1714157336 -484197629 -1643729675 1603691192 2004667617 2065658283 -1718777840 -1397415586 -2088541790
REM
REM Se 3|2.1|7|7|9|40:41:32(qc=5)
REM Ag 3|2.2|7|7|9|40U:50:41:42(qc=5)
REM 
CELL 1.54180    6.11359    6.19127    6.11359   89.27930   92.36282   89.27930
LATT -1
SFAC Se Ag 
Se     1 -0.4850911548053  0.4069673051853  0.1557674784738 1.0
Se     1  0.1557674784738 -0.0930326948147 -0.4850911548053 1.0
Se     1 -0.2056308018632 -0.1031850866280  0.0146704366624 1.0
Se     1  0.0146704366624  0.3968149133720 -0.2056308018632 1.0
Ag     2  0.4578574968374 -0.0085481667120  0.2408510928922 1.0
Ag     2  0.2408510928922  0.4914518332880  0.4578574968374 1.0
Ag     2 -0.2490294559954  0.2406591949522 -0.4906547569628 1.0
Ag     2 -0.4906547569628 -0.2593408050478 -0.2490294559954 1.0
Ag     2 -0.2328700582626 -0.3220492248917  0.3935241248098 1.0
Ag     2  0.3935241248098  0.1779507751083 -0.2328700582626 1.0
Ag     2  0.1746433092133 -0.2995636219058  0.0489856890004 1.0
Ag     2  0.0489856890004  0.2004363780942  0.1746433092133 1.0
END
