TITL 4Ag2Se_TETRA-200803-164013-3b3f02 -0.0575 227.320050 -4.61177232E+004 0 0 12 (Pbca) n - 1
REM
REM Run started: Mon, 03 Aug 2020 17:03:42 +0100 in /lustre/scratch/uccabz1/launch_tmp/launcher_2020-08-03-15-40-11-495917
REM CASTEP 20.1 from code version af48c487+ pr-geom-scf-spinfix Tue Jun 2 15:39:59 2020 +0100
REM Functional PBE for solids (2008) Relativity Koelling-Harmon Dispersion off
REM Cut-off 300.0000 eV Grid scale 1.7500 Gmax 15.5288 1/A FBSC none
REM MP grid 3 3 2 Offset 0.000 0.000 0.000 No. kpts 4 Spacing 0.07
REM Total runtime: 1544.41 s
REM Overall efficiency: 70.8333 %
REM
REM 4Ag2Se_TETRA.cell (4020362940262d3df87d4014b41eb05e)
REM
REM compiler GCC version 4.9.2
REM options -cpp -iprefix /lustre/shared/ucl/apps/gcc/4.9.2/bin/../lib/gcc/x86_64-unknown-linux-gnu/4.9.2/ -mtune=corei7 -march=x86-64 -g -Og
REM COMMAND_LINE
REM seed 836988894 101108056 -1196413479 7206662 -1623448535 786808365 -1086843377 -563195600 1647812000 -1959027702 593537310 369299020
REM
REM Se 3|2.1|7|7|9|40:41:32(qc=5)
REM Ag 3|2.2|7|7|9|40U:50:41:42(qc=5)
REM 
CELL 1.54180    5.12530    5.82710    7.61142   90.00000   90.00000   90.00000
LATT -1
SFAC Se Ag 
Se     1 -0.0025830857345  0.4269773157810  0.2494270550873 1.0
Se     1  0.0025830857345 -0.0730226842190 -0.2494270550873 1.0
Se     1 -0.5025830857345  0.4269773157810 -0.2494270550873 1.0
Se     1  0.5025830857345 -0.0730226842190  0.2494270550873 1.0
Ag     2  0.0533543543369 -0.4732925024750 -0.0806909170259 1.0
Ag     2 -0.0533543543369  0.0267074975250  0.0806909170259 1.0
Ag     2 -0.4466456456631 -0.4732925024750  0.0806909170259 1.0
Ag     2  0.4466456456631  0.0267074975250 -0.0806909170259 1.0
Ag     2  0.0552322732753 -0.1783851133060  0.4148167061269 1.0
Ag     2 -0.0552322732753  0.3216148866940 -0.4148167061269 1.0
Ag     2 -0.4447677267247 -0.1783851133060 -0.4148167061269 1.0
Ag     2  0.4447677267247  0.3216148866940  0.4148167061269 1.0
END
