TITL 4Ag2Se_TETRA_OPT-200811-090526-24dd15 -0.0426 226.355969 -4.61184380E+004 0 0 12 (P1) n - 1
REM
REM Run started: Tue, 11 Aug 2020 11:09:28 +0100 in /lustre/scratch/uccabz1/launch_tmp/launcher_2020-08-11-08-05-24-871952
REM CASTEP 20.1 from code version af48c487+ pr-geom-scf-spinfix Tue Jun 2 15:39:59 2020 +0100
REM Functional PBE for solids (2008) Relativity Koelling-Harmon Dispersion off
REM Cut-off 300.0000 eV Grid scale 1.7500 Gmax 15.5288 1/A FBSC none
REM MP grid 3 3 3 Offset 0.000 0.000 0.000 No. kpts 14 Spacing 0.07
REM Total runtime: 7627.13 s
REM Overall efficiency: 92.75 %
REM
REM 4Ag2Se_TETRA_OPT.cell (db6eaae92e6a5f18c152ebab86a92a61)
REM
REM compiler GCC version 4.9.2
REM options -cpp -iprefix /lustre/shared/ucl/apps/gcc/4.9.2/bin/../lib/gcc/x86_64-unknown-linux-gnu/4.9.2/ -mtune=corei7 -march=x86-64 -g -Og
REM COMMAND_LINE
REM seed -483418405 -496048836 630942519 1890464577 -382686527 489493310 1089969924 -602289242 1427415684 1804651716 -1092968522 1401231587
REM
REM Se 3|2.1|7|7|9|40:41:32(qc=5)
REM Ag 3|2.2|7|7|9|40U:50:41:42(qc=5)
REM 
CELL 1.54180    4.94971    7.10787    6.47431   87.41969   84.16321   89.14682
LATT -1
SFAC Se Ag 
Se     1 -0.3826353992880  0.2385698707209 -0.2644086978943 1.0
Se     1  0.2537407384549  0.1477866510062  0.2661562844581 1.0
Se     1  0.1432607079839 -0.2884189948553 -0.3595173151139 1.0
Se     1 -0.2247789144486 -0.2557559942146  0.1987616678754 1.0
Ag     2 -0.0696975025067  0.4251119654380  0.4185526138062 1.0
Ag     2  0.1254584307566  0.0980744431884 -0.2987299859145 1.0
Ag     2 -0.3417462474720 -0.0527490352624  0.5137437407486 1.0
Ag     2 -0.2113506125748  0.1312128463333  0.0963191050142 1.0
Ag     2  0.0709788516883  0.4444784893741 -0.0632286767026 1.0
Ag     2 -0.3809698744991 -0.3855691172922 -0.2386688742663 1.0
Ag     2  0.2893971616621 -0.1651470683299  0.0234984238275 1.0
Ag     2  0.4632920602434  0.4710335438936  0.2059736141616 1.0
END
