TITL 4Ag2Se_TETRA_OPT-200811-100318-98dcf4 -0.0018 221.040057 -4.61185899E+004 0 0 12 (P1) n - 1
REM
REM Run started: Tue, 11 Aug 2020 12:10:39 +0100 in /lustre/scratch/uccabz1/launch_tmp/launcher_2020-08-11-09-03-17-084021
REM CASTEP 20.1 from code version af48c487+ pr-geom-scf-spinfix Tue Jun 2 15:39:59 2020 +0100
REM Functional PBE for solids (2008) Relativity Koelling-Harmon Dispersion off
REM Cut-off 300.0000 eV Grid scale 1.7500 Gmax 15.5288 1/A FBSC none
REM MP grid 4 3 3 Offset 0.000 0.000 0.000 No. kpts 18 Spacing 0.07
REM Total runtime: 7692.77 s
REM Overall efficiency: 87.75 %
REM
REM 4Ag2Se_TETRA_OPT.cell (db6eaae92e6a5f18c152ebab86a92a61)
REM
REM compiler GCC version 4.9.2
REM options -cpp -iprefix /lustre/shared/ucl/apps/gcc/4.9.2/bin/../lib/gcc/x86_64-unknown-linux-gnu/4.9.2/ -mtune=corei7 -march=x86-64 -g -Og
REM COMMAND_LINE
REM seed -1908566941 -1690189977 1991216030 -1428250198 -1570634081 -1946130162 1086223409 -811283528 -804673273 580537229 -1744453360 -638887067
REM
REM Se 3|2.1|7|7|9|40:41:32(qc=5)
REM Ag 3|2.2|7|7|9|40U:50:41:42(qc=5)
REM 
CELL 1.54180    4.60074    7.28840    6.84985  102.56472   86.48126   82.05399
LATT -1
SFAC Se Ag 
Se     1  0.2646266335383  0.0759143841802 -0.3066226830895 1.0
Se     1 -0.1373711267331 -0.0232596669719  0.2328544833140 1.0
Se     1 -0.0883626166445 -0.5025528818976 -0.4992407013624 1.0
Se     1  0.3857009205345  0.4985848894350  0.0712514150033 1.0
Ag     2 -0.0598481851155  0.2899052696998  0.1038453742647 1.0
Ag     2  0.4084008016626 -0.0298889417692  0.0177988303820 1.0
Ag     2 -0.1769732800976 -0.1331154172050 -0.3511743730604 1.0
Ag     2  0.3841304738814 -0.2056241399589  0.3657954601843 1.0
Ag     2  0.3616351741794 -0.3696877334573 -0.2924351634433 1.0
Ag     2 -0.2824964839069  0.2793168705604 -0.2718911443105 1.0
Ag     2  0.4251697519121  0.2716847056682  0.3721825822046 1.0
Ag     2 -0.1412854632105 -0.3535241382837 -0.0394385800866 1.0
END
