TITL 4Ag2SE-200803-155116-4213c9 0.0163 240.567755 -4.61181322E+004 0 0 12 (Immm) n - 1
REM
REM Run started: Mon, 03 Aug 2020 16:22:57 +0100 in /lustre/scratch/uccabz1/launch_tmp/launcher_2020-08-03-14-51-14-646058
REM CASTEP 20.1 from code version af48c487+ pr-geom-scf-spinfix Tue Jun 2 15:39:59 2020 +0100
REM Functional PBE for solids (2008) Relativity Koelling-Harmon Dispersion off
REM Cut-off 300.0000 eV Grid scale 1.7500 Gmax 15.5288 1/A FBSC none
REM MP grid 3 3 3 Offset 0.000 0.000 0.000 No. kpts 8 Spacing 0.07
REM Total runtime: 2172.2 s
REM Overall efficiency: 91.6667 %
REM
REM 4Ag2SE.cell (6404a18c6b5dc90313b5c56acf317f23)
REM
REM compiler GCC version 4.9.2
REM options -cpp -iprefix /lustre/shared/ucl/apps/gcc/4.9.2/bin/../lib/gcc/x86_64-unknown-linux-gnu/4.9.2/ -mtune=corei7 -march=x86-64 -g -Og
REM COMMAND_LINE
REM seed 598338400 -2054095274 455690063 49203987 -1408074023 1498334837 1517170196 1062485912 -1603993381 881945572 218153579 -1766809131
REM
REM Se 3|2.1|7|7|9|40:41:32(qc=5)
REM Ag 3|2.2|7|7|9|40U:50:41:42(qc=5)
REM 
CELL 1.54180    6.04367    6.04367    7.75871  110.37464  110.37464   96.08994
LATT -1
SFAC Se Ag 
Se     1 -0.4574892488946 -0.0521444243984 -0.0067343714140 1.0
Se     1  0.0521444243984  0.4574892488946  0.0067343714140 1.0
Se     1 -0.2045899470156 -0.2992451225195 -0.5067343714140 1.0
Se     1  0.2992451225195  0.2045899470156  0.5067343714140 1.0
Ag     2 -0.0660023362441  0.3333629695763  0.2748989084256 1.0
Ag     2 -0.3333629695763  0.0660023362441 -0.2748989084256 1.0
Ag     2 -0.3084640611507 -0.4090987553303 -0.2251010915744 1.0
Ag     2  0.4090987553303  0.3084640611507  0.2251010915744 1.0
Ag     2  0.4346308355894 -0.1522170447271  0.2761049043273 1.0
Ag     2  0.1522170447271 -0.4346308355894 -0.2761049043273 1.0
Ag     2  0.1783219490544  0.0914740687379 -0.2238950956727 1.0
Ag     2 -0.0914740687379 -0.1783219490544  0.2238950956727 1.0
END
