TITL 4Ag2Se_TETRA_OPT-200811-104322-93cb21 0.0482 223.054191 -4.61184424E+004 0 0 12 (P1) n - 1
REM
REM Run started: Tue, 11 Aug 2020 12:24:53 +0100 in /lustre/scratch/uccabz1/launch_tmp/launcher_2020-08-11-09-43-20-572419
REM CASTEP 20.1 from code version af48c487+ pr-geom-scf-spinfix Tue Jun 2 15:39:59 2020 +0100
REM Functional PBE for solids (2008) Relativity Koelling-Harmon Dispersion off
REM Cut-off 300.0000 eV Grid scale 1.7500 Gmax 15.5288 1/A FBSC none
REM MP grid 3 3 3 Offset 0.000 0.000 0.000 No. kpts 14 Spacing 0.07
REM Total runtime: 6261.75 s
REM Overall efficiency: 94.8 %
REM
REM 4Ag2Se_TETRA_OPT.cell (db6eaae92e6a5f18c152ebab86a92a61)
REM
REM compiler GCC version 4.9.2
REM options -cpp -iprefix /lustre/shared/ucl/apps/gcc/4.9.2/bin/../lib/gcc/x86_64-unknown-linux-gnu/4.9.2/ -mtune=corei7 -march=x86-64 -g -Og
REM COMMAND_LINE
REM seed 1714059652 -871075765 1260228875 1939197806 1794035599 -252914333 -1951041802 -609555138 -1638807410 -539073343 464813288 4831541
REM
REM Se 3|2.1|7|7|9|40:41:32(qc=5)
REM Ag 3|2.2|7|7|9|40U:50:41:42(qc=5)
REM 
CELL 1.54180    4.94738    6.71542    6.72128   91.37704   87.99554   91.26959
LATT -1
SFAC Se Ag 
Se     1  0.4486488531349  0.4049984675479  0.4805933590638 1.0
Se     1 -0.2167856243957 -0.5008750215816 -0.0180494695659 1.0
Se     1 -0.1797766992229 -0.0230611169827 -0.4169207995201 1.0
Se     1  0.2229749770188 -0.0241929776037  0.0355795848751 1.0
Ag     2 -0.0389726440239 -0.4065306675150 -0.4201672270262 1.0
Ag     2 -0.2792797637465  0.1081126029074 -0.0472615047838 1.0
Ag     2  0.2595674560511 -0.4069660470244  0.1799700382723 1.0
Ag     2  0.3246840397511 -0.0252600381036  0.4328308089271 1.0
Ag     2 -0.0610342305679  0.2634826870521  0.3108354556040 1.0
Ag     2  0.2464885938466  0.3214617221708 -0.1638106357372 1.0
Ag     2 -0.2343344256251 -0.1977824086687  0.2328934178955 1.0
Ag     2  0.4334858677797 -0.2756199021985 -0.2370507280046 1.0
END
