TITL 4Ag2Se_TETRA_OPT-200811-091620-9eed26 -0.0072 221.148770 -4.61185763E+004 0 0 12 (P-1) n - 1
REM
REM Run started: Tue, 11 Aug 2020 11:15:48 +0100 in /lustre/scratch/uccabz1/launch_tmp/launcher_2020-08-11-08-16-19-196191
REM CASTEP 20.1 from code version af48c487+ pr-geom-scf-spinfix Tue Jun 2 15:39:59 2020 +0100
REM Functional PBE for solids (2008) Relativity Koelling-Harmon Dispersion off
REM Cut-off 300.0000 eV Grid scale 1.7500 Gmax 15.5288 1/A FBSC none
REM MP grid 3 3 3 Offset 0.000 0.000 0.000 No. kpts 14 Spacing 0.07
REM Total runtime: 7691.05 s
REM Overall efficiency: 94.6364 %
REM
REM 4Ag2Se_TETRA_OPT.cell (db6eaae92e6a5f18c152ebab86a92a61)
REM
REM compiler GCC version 4.9.2
REM options -cpp -iprefix /lustre/shared/ucl/apps/gcc/4.9.2/bin/../lib/gcc/x86_64-unknown-linux-gnu/4.9.2/ -mtune=corei7 -march=x86-64 -g -Og
REM COMMAND_LINE
REM seed 227216818 726991011 -1980080681 1325773102 -1980265194 -811618658 -357559072 -1227415151 3402070 1364267580 -1572761959 557537745
REM
REM Se 3|2.1|7|7|9|40:41:32(qc=5)
REM Ag 3|2.2|7|7|9|40U:50:41:42(qc=5)
REM 
CELL 1.54180    4.81825    6.82557    6.76536   96.17503   89.44013   88.92168
LATT -1
SFAC Se Ag 
Se     1  0.2720995743919  0.0097928912584 -0.2047648370205 1.0
Se     1 -0.2720995743919 -0.0097928912584  0.2047648370205 1.0
Se     1  0.1870906767001  0.4168856094051  0.2358410082103 1.0
Se     1 -0.1870906767001 -0.4168856094051 -0.2358410082103 1.0
Ag     2 -0.2092815023427  0.2209067559854 -0.0850451051568 1.0
Ag     2  0.2092815023427 -0.2209067559854  0.0850451051568 1.0
Ag     2  0.2280324748588  0.0780053744620  0.4106739423542 1.0
Ag     2 -0.2280324748588 -0.0780053744620 -0.4106739423542 1.0
Ag     2  0.3097337900380  0.4164581645732 -0.1770617592572 1.0
Ag     2 -0.3097337900380 -0.4164581645732  0.1770617592572 1.0
Ag     2  0.3042552454366 -0.3156290369246  0.5216061631387 1.0
Ag     2 -0.3042552454366  0.3156290369246 -0.5216061631387 1.0
END
