TITL 4Ag2SE-200803-160656-cf686f 0.0143 215.550786 -4.61176884E+004 0 0 12 (P-4) n - 1
REM
REM Run started: Mon, 03 Aug 2020 16:15:48 +0100 in /lustre/scratch/uccabz1/launch_tmp/launcher_2020-08-03-15-06-54-784511
REM CASTEP 20.1 from code version af48c487+ pr-geom-scf-spinfix Tue Jun 2 15:39:59 2020 +0100
REM Functional PBE for solids (2008) Relativity Koelling-Harmon Dispersion off
REM Cut-off 300.0000 eV Grid scale 1.7500 Gmax 15.5288 1/A FBSC none
REM MP grid 3 3 2 Offset 0.000 0.000 0.000 No. kpts 3 Spacing 0.07
REM Total runtime: 580.71 s
REM Overall efficiency: 66.8333 %
REM
REM 4Ag2SE.cell (6404a18c6b5dc90313b5c56acf317f23)
REM
REM compiler GCC version 4.9.2
REM options -cpp -iprefix /lustre/shared/ucl/apps/gcc/4.9.2/bin/../lib/gcc/x86_64-unknown-linux-gnu/4.9.2/ -mtune=corei7 -march=x86-64 -g -Og
REM COMMAND_LINE
REM seed 889567677 -2072522822 -425414940 -872330988 367042132 1334150464 -291405759 1825897887 156375050 -2124982985 -1923256759 -1751488922
REM
REM Se 3|2.1|7|7|9|40:41:32(qc=5)
REM Ag 3|2.2|7|7|9|40U:50:41:42(qc=5)
REM 
CELL 1.54180    5.14646    5.14646    8.13827   90.00000   90.00000   90.00000
LATT -1
SFAC Se Ag 
Se     1  0.2426869281836 -0.2450825584540  0.2564778636052 1.0
Se     1 -0.2426869281836  0.2450825584540  0.2564778636052 1.0
Se     1 -0.2450825584540 -0.2426869281836 -0.2564778636052 1.0
Se     1  0.2450825584540  0.2426869281836 -0.2564778636052 1.0
Ag     2  0.2343383291915 -0.2705341183997 -0.4137056039345 1.0
Ag     2 -0.2343383291915  0.2705341183997 -0.4137056039345 1.0
Ag     2 -0.2705341183997 -0.2343383291915  0.4137056039345 1.0
Ag     2  0.2705341183997  0.2343383291915  0.4137056039345 1.0
Ag     2  0.2849566415438 -0.2177885193561 -0.0752260466958 1.0
Ag     2 -0.2849566415438  0.2177885193561 -0.0752260466958 1.0
Ag     2 -0.2177885193561 -0.2849566415438  0.0752260466958 1.0
Ag     2  0.2177885193561  0.2849566415438  0.0752260466958 1.0
END
