TITL 4Ag2Se_TETRA_OPT-200811-091506-609b01 0.0020 232.828111 -4.61182355E+004 0 0 12 (P1) n - 1
REM
REM Run started: Tue, 11 Aug 2020 10:38:37 +0100 in /lustre/scratch/uccabz1/launch_tmp/launcher_2020-08-11-08-15-05-273051
REM CASTEP 20.1 from code version af48c487+ pr-geom-scf-spinfix Tue Jun 2 15:39:59 2020 +0100
REM Functional PBE for solids (2008) Relativity Koelling-Harmon Dispersion off
REM Cut-off 300.0000 eV Grid scale 1.7500 Gmax 15.5288 1/A FBSC none
REM MP grid 4 2 3 Offset 0.000 0.000 0.000 No. kpts 12 Spacing 0.07
REM Total runtime: 5147.89 s
REM Overall efficiency: 84.5556 %
REM
REM 4Ag2Se_TETRA_OPT.cell (db6eaae92e6a5f18c152ebab86a92a61)
REM
REM compiler GCC version 4.9.2
REM options -cpp -iprefix /lustre/shared/ucl/apps/gcc/4.9.2/bin/../lib/gcc/x86_64-unknown-linux-gnu/4.9.2/ -mtune=corei7 -march=x86-64 -g -Og
REM COMMAND_LINE
REM seed -1190385222 1101474675 -1682092832 -1541591723 -1083545572 -810608877 -203117181 -1048054081 183779049 1950549816 2034134199 -972253054
REM
REM Se 3|2.1|7|7|9|40:41:32(qc=5)
REM Ag 3|2.2|7|7|9|40U:50:41:42(qc=5)
REM 
CELL 1.54180    4.32907    7.76257    7.05521   93.64531   84.41770   98.91752
LATT -1
SFAC Se Ag 
Se     1 -0.2861991845513  0.1883213402470 -0.3665186718538 1.0
Se     1  0.4761478980057  0.4009494186320  0.1243805738274 1.0
Se     1  0.3379901184753 -0.2863042094406 -0.3197817944585 1.0
Se     1 -0.1615494980383 -0.1393978031736  0.2014912854814 1.0
Ag     2  0.3372388639051  0.4003913979944  0.5094963332363 1.0
Ag     2 -0.1111480182178  0.2245377304811  0.2537459430877 1.0
Ag     2  0.1553303937003  0.2380765797518 -0.1435972465920 1.0
Ag     2 -0.0175928654648 -0.4328974976062 -0.0459908184172 1.0
Ag     2  0.2206187908795  0.0144115584127 -0.5272512123828 1.0
Ag     2 -0.1392174190386 -0.1177902478109 -0.1983817126524 1.0
Ag     2  0.4005396994986  0.0099851607582  0.0581515019190 1.0
Ag     2  0.2610776208464 -0.3209886282458  0.3052058188049 1.0
END
