TITL 4Ag2Se_TETRA_OPT-200811-101226-b74949 -0.0434 224.673782 -4.61184816E+004 0 0 12 (P1) n - 1
REM
REM Run started: Tue, 11 Aug 2020 11:21:25 +0100 in /lustre/scratch/uccabz1/launch_tmp/launcher_2020-08-11-09-12-24-934077
REM CASTEP 20.1 from code version af48c487+ pr-geom-scf-spinfix Tue Jun 2 15:39:59 2020 +0100
REM Functional PBE for solids (2008) Relativity Koelling-Harmon Dispersion off
REM Cut-off 300.0000 eV Grid scale 1.7500 Gmax 15.5288 1/A FBSC none
REM MP grid 3 3 3 Offset 0.000 0.000 0.000 No. kpts 14 Spacing 0.07
REM Total runtime: 4171.37 s
REM Overall efficiency: 91.5 %
REM
REM 4Ag2Se_TETRA_OPT.cell (db6eaae92e6a5f18c152ebab86a92a61)
REM
REM compiler GCC version 4.9.2
REM options -cpp -iprefix /lustre/shared/ucl/apps/gcc/4.9.2/bin/../lib/gcc/x86_64-unknown-linux-gnu/4.9.2/ -mtune=corei7 -march=x86-64 -g -Og
REM COMMAND_LINE
REM seed -1180200288 579710703 -1570145012 -1914523294 2013107035 1622777251 1982505861 -19196847 26670068 306847946 -643266763 -240605065
REM
REM Se 3|2.1|7|7|9|40:41:32(qc=5)
REM Ag 3|2.2|7|7|9|40U:50:41:42(qc=5)
REM 
CELL 1.54180    4.95378    6.76711    6.72109   90.80838   87.82078   93.65344
LATT -1
SFAC Se Ag 
Se     1 -0.1440365984069  0.0458712026473  0.0315045118060 1.0
Se     1 -0.0511725658184  0.4515654343688 -0.4872704326553 1.0
Se     1  0.4656652477886 -0.4681423248939  0.0464340425055 1.0
Se     1  0.3327568718594 -0.0433614352985 -0.4494215423458 1.0
Ag     2 -0.1593793339947 -0.2277912648140 -0.2557769278623 1.0
Ag     2  0.3888380522134  0.2133377439665  0.2617671815474 1.0
Ag     2  0.4776525285125  0.2821961675239 -0.2615766587262 1.0
Ag     2  0.4748315325592 -0.4018482159884  0.4562154717414 1.0
Ag     2 -0.0267183275029 -0.2908930393337  0.2163881226688 1.0
Ag     2  0.3481687740570 -0.0886144131321 -0.0451905886826 1.0
Ag     2 -0.1478252168470  0.0582284781569  0.4350396631652 1.0
Ag     2 -0.0164267644202  0.4146037667971 -0.0891650431620 1.0
END
