TITL 4Ag2SE-200803-155110-41caaf 0.0008 239.158327 -4.61170148E+004 0 0 12 (Cm) n - 1
REM
REM Run started: Mon, 03 Aug 2020 17:02:13 +0100 in /lustre/scratch/uccabz1/launch_tmp/launcher_2020-08-03-14-51-07-598546
REM CASTEP 20.1 from code version af48c487+ pr-geom-scf-spinfix Tue Jun 2 15:39:59 2020 +0100
REM Functional PBE for solids (2008) Relativity Koelling-Harmon Dispersion off
REM Cut-off 300.0000 eV Grid scale 1.7500 Gmax 15.5288 1/A FBSC none
REM MP grid 4 3 2 Offset 0.000 0.000 0.000 No. kpts 10 Spacing 0.07
REM Total runtime: 4531.24 s
REM Overall efficiency: 93 %
REM
REM 4Ag2SE.cell (6404a18c6b5dc90313b5c56acf317f23)
REM
REM compiler GCC version 4.9.2
REM options -cpp -iprefix /lustre/shared/ucl/apps/gcc/4.9.2/bin/../lib/gcc/x86_64-unknown-linux-gnu/4.9.2/ -mtune=corei7 -march=x86-64 -g -Og
REM COMMAND_LINE
REM seed -1916862764 1146819298 -541617555 -296227120 48535177 2001408594 1406139257 -1268496433 667479714 -418327431 -88737128 1649212231
REM
REM Se 3|2.1|7|7|9|40:41:32(qc=5)
REM Ag 3|2.2|7|7|9|40U:50:41:42(qc=5)
REM 
CELL 1.54180    4.45665    7.11818    8.40649   64.95220   86.55739   81.84602
LATT -1
SFAC Se Ag 
Se     1 -0.1101874036428  0.3447649035877  0.2464991045575 1.0
Se     1  0.8898125963572 -0.4087359918548 -0.2464991045575 1.0
Se     1 -0.5097845398862  0.1185763452287 -0.3527737505366 1.0
Se     1  0.4902154601138 -0.2341974053078  0.3527737505366 1.0
Ag     2 -0.5749259491725  0.1776690995985  0.1810137378337 1.0
Ag     2 -0.5749259491725  0.3586828374322 -0.1810137378337 1.0
Ag     2  0.3305988791898 -0.2466209661893 -0.1796005449533 1.0
Ag     2  0.3305988791898 -0.4262215111425  0.1796005449533 1.0
Ag     2  0.0047124306410 -0.0313458446184 -0.4971746696379 1.0
Ag     2  0.0047124306410  0.4714794857437  0.4971746696379 1.0
Ag     2 -0.0308386171293 -0.0680419758662  0.1793559992545 1.0
Ag     2 -0.0308386171293  0.1113140233883 -0.1793559992545 1.0
END
