TITL 4Ag2SE-200803-160656-1a31fa 0.0372 227.634793 -4.61181197E+004 0 0 12 (P2/c) n - 1
REM
REM Run started: Mon, 03 Aug 2020 16:32:12 +0100 in /lustre/scratch/uccabz1/launch_tmp/launcher_2020-08-03-15-06-54-431267
REM CASTEP 20.1 from code version af48c487+ pr-geom-scf-spinfix Tue Jun 2 15:39:59 2020 +0100
REM Functional PBE for solids (2008) Relativity Koelling-Harmon Dispersion off
REM Cut-off 300.0000 eV Grid scale 1.7500 Gmax 15.5288 1/A FBSC none
REM MP grid 3 3 2 Offset 0.000 0.000 0.000 No. kpts 5 Spacing 0.07
REM Total runtime: 1581.33 s
REM Overall efficiency: 72 %
REM
REM 4Ag2SE.cell (6404a18c6b5dc90313b5c56acf317f23)
REM
REM compiler GCC version 4.9.2
REM options -cpp -iprefix /lustre/shared/ucl/apps/gcc/4.9.2/bin/../lib/gcc/x86_64-unknown-linux-gnu/4.9.2/ -mtune=corei7 -march=x86-64 -g -Og
REM COMMAND_LINE
REM seed 422126849 1518074092 213883076 1103956825 -1568490742 -441393384 -1091169905 -1666677944 1418240285 -63049482 -1649870280 -172788751
REM
REM Se 3|2.1|7|7|9|40:41:32(qc=5)
REM Ag 3|2.2|7|7|9|40U:50:41:42(qc=5)
REM 
CELL 1.54180    4.79770    6.34312    7.48002   90.00000   90.00000   90.06493
LATT -1
SFAC Se Ag 
Se     1 -0.2320975444768 -0.2335681973654 -0.4912492295750 1.0
Se     1  0.2320975444768  0.2335681973654 -0.4912492295750 1.0
Se     1  0.2320975444768 -0.2664318026346 -0.0095858704250 1.0
Se     1 -0.2320975444768  0.2664318026346 -0.0095858704250 1.0
Ag     2 -0.2614249411695  0.3672568081223 -0.3525118258330 1.0
Ag     2  0.2614249411695 -0.3672568081223 -0.3525118258330 1.0
Ag     2 -0.2614249411695 -0.1327431918777 -0.1483232741670 1.0
Ag     2  0.2614249411695  0.1327431918777 -0.1483232741670 1.0
Ag     2  0.2565755414117 -0.1329083897223  0.3203378416561 1.0
Ag     2 -0.2565755414117  0.1329083897223  0.3203378416561 1.0
Ag     2  0.2565755414117  0.3670916102777  0.1788270583439 1.0
Ag     2 -0.2565755414117 -0.3670916102777  0.1788270583439 1.0
END
