TITL 4Ag2Se_TETRA-200803-163443-559f0c -0.0095 220.312499 -4.61175694E+004 0 0 12 (Pna21) n - 1
REM
REM Run started: Mon, 03 Aug 2020 16:59:09 +0100 in /lustre/scratch/uccabz1/launch_tmp/launcher_2020-08-03-15-34-42-328793
REM CASTEP 20.1 from code version af48c487+ pr-geom-scf-spinfix Tue Jun 2 15:39:59 2020 +0100
REM Functional PBE for solids (2008) Relativity Koelling-Harmon Dispersion off
REM Cut-off 300.0000 eV Grid scale 1.7500 Gmax 15.5288 1/A FBSC none
REM MP grid 3 3 2 Offset 0.000 0.000 0.000 No. kpts 4 Spacing 0.07
REM Total runtime: 1608.82 s
REM Overall efficiency: 72.1667 %
REM
REM 4Ag2Se_TETRA.cell (4020362940262d3df87d4014b41eb05e)
REM
REM compiler GCC version 4.9.2
REM options -cpp -iprefix /lustre/shared/ucl/apps/gcc/4.9.2/bin/../lib/gcc/x86_64-unknown-linux-gnu/4.9.2/ -mtune=corei7 -march=x86-64 -g -Og
REM COMMAND_LINE
REM seed 1291893768 1569460530 1387803440 -485661374 -1055940476 -757549379 -780490775 1871286110 560765967 19109872 1108336818 -895349121
REM
REM Se 3|2.1|7|7|9|40:41:32(qc=5)
REM Ag 3|2.2|7|7|9|40U:50:41:42(qc=5)
REM 
CELL 1.54180    5.14579    5.08673    8.41682   90.00000   90.00000   90.00000
LATT -1
SFAC Se Ag 
Se     1 -0.2122059982480  0.0199796371445  0.1167205162339 1.0
Se     1  0.2122059982480 -0.4800203628555 -0.1167205162339 1.0
Se     1  0.2877940017520  0.0199796371445  0.3832794837661 1.0
Se     1 -0.2877940017520 -0.4800203628555 -0.3832794837661 1.0
Ag     2  0.2740180657538  0.0477185935145  0.0194051502249 1.0
Ag     2 -0.2740180657538 -0.4522814064855 -0.0194051502249 1.0
Ag     2 -0.2259819342462  0.0477185935145  0.4805948497751 1.0
Ag     2  0.2259819342462 -0.4522814064855 -0.4805948497751 1.0
Ag     2 -0.2088573337859 -0.4433216306590  0.3095247611633 1.0
Ag     2  0.2088573337859  0.0566783693410 -0.3095247611633 1.0
Ag     2  0.2911426662141 -0.4433216306590  0.1904752388367 1.0
Ag     2 -0.2911426662141  0.0566783693410 -0.1904752388367 1.0
END
