TITL 4Ag2Se_TETRA_OPT-200811-093339-e49042 0.1878 240.715943 -4.61182765E+004 0 0 12 (P1) n - 1
REM
REM Run started: Tue, 11 Aug 2020 11:42:21 +0100 in /lustre/scratch/uccabz1/launch_tmp/launcher_2020-08-11-08-33-37-412644
REM CASTEP 20.1 from code version af48c487+ pr-geom-scf-spinfix Tue Jun 2 15:39:59 2020 +0100
REM Functional PBE for solids (2008) Relativity Koelling-Harmon Dispersion off
REM Cut-off 300.0000 eV Grid scale 1.7500 Gmax 15.5288 1/A FBSC none
REM MP grid 4 2 3 Offset 0.000 0.000 0.000 No. kpts 12 Spacing 0.07
REM Total runtime: 8558.39 s
REM Overall efficiency: 81.6667 %
REM
REM 4Ag2Se_TETRA_OPT.cell (db6eaae92e6a5f18c152ebab86a92a61)
REM
REM compiler GCC version 4.9.2
REM options -cpp -iprefix /lustre/shared/ucl/apps/gcc/4.9.2/bin/../lib/gcc/x86_64-unknown-linux-gnu/4.9.2/ -mtune=corei7 -march=x86-64 -g -Og
REM COMMAND_LINE
REM seed -721280357 -1199290182 1945291478 1380769298 1156042960 1474447881 -1740900302 673011168 602116471 1047792084 -2127618151 -1885613099
REM
REM Se 3|2.1|7|7|9|40:41:32(qc=5)
REM Ag 3|2.2|7|7|9|40U:50:41:42(qc=5)
REM 
CELL 1.54180    4.52623    7.48447    7.22059   94.75219   97.74017   94.05037
LATT -1
SFAC Se Ag 
Se     1  0.0686185308267 -0.0092506486388 -0.3998850504903 1.0
Se     1 -0.1321382330105  0.2289293740537  0.0684080806050 1.0
Se     1  0.5506909142799  0.4710002063548 -0.3506529610302 1.0
Se     1  0.3450260368270 -0.1557751518655  0.0677256916047 1.0
Ag     2  0.1501059025567  0.5288713265411  0.0741149479141 1.0
Ag     2 -0.1256308723655 -0.1098897733583  0.2439008537804 1.0
Ag     2 -0.3639481097629 -0.0912322747942 -0.2167119509258 1.0
Ag     2  0.1966976472760  0.2605704843698  0.3946519535072 1.0
Ag     2 -0.2926623673742  0.4684164037102  0.3112139577598 1.0
Ag     2  0.0744863255055 -0.3556909793695 -0.2908502467274 1.0
Ag     2  0.3918372855696 -0.2539273982084  0.4224748904347 1.0
Ag     2  0.3351975396717  0.2356007312052 -0.1276390664322 1.0
END
