TITL 4Ag2Se_TETRA_OPT-200811-111007-d53b85 -0.0340 230.653763 -4.61182988E+004 0 0 12 (P-1) n - 1
REM
REM Run started: Tue, 11 Aug 2020 12:06:38 +0100 in /lustre/scratch/uccabz1/launch_tmp/launcher_2020-08-11-10-10-06-034929
REM CASTEP 20.1 from code version af48c487+ pr-geom-scf-spinfix Tue Jun 2 15:39:59 2020 +0100
REM Functional PBE for solids (2008) Relativity Koelling-Harmon Dispersion off
REM Cut-off 300.0000 eV Grid scale 1.7500 Gmax 15.5288 1/A FBSC none
REM MP grid 4 3 2 Offset 0.000 0.000 0.000 No. kpts 12 Spacing 0.07
REM Total runtime: 3465.47 s
REM Overall efficiency: 86.375 %
REM
REM 4Ag2Se_TETRA_OPT.cell (db6eaae92e6a5f18c152ebab86a92a61)
REM
REM compiler GCC version 4.9.2
REM options -cpp -iprefix /lustre/shared/ucl/apps/gcc/4.9.2/bin/../lib/gcc/x86_64-unknown-linux-gnu/4.9.2/ -mtune=corei7 -march=x86-64 -g -Og
REM COMMAND_LINE
REM seed -1302381305 63945686 -108397540 561244310 -339299888 2044834809 -970141385 670615699 -935535637 1066871765 -1420857083 1008644713
REM
REM Se 3|2.1|7|7|9|40:41:32(qc=5)
REM Ag 3|2.2|7|7|9|40U:50:41:42(qc=5)
REM 
CELL 1.54180    4.67624    6.64538    7.44588   88.49777   86.75026   92.72353
LATT -1
SFAC Se Ag 
Se     1  0.2778909918931 -0.2567568086437  0.0190609471630 1.0
Se     1 -0.2778909918931  0.2567568086437 -0.0190609471630 1.0
Se     1  0.2744056480970  0.3127163040672  0.5020688186194 1.0
Se     1 -0.2744056480970 -0.3127163040672 -0.5020688186194 1.0
Ag     2 -0.2785523583769 -0.0866030235278 -0.2110035842218 1.0
Ag     2  0.2785523583769  0.0866030235278  0.2110035842218 1.0
Ag     2  0.2296320038012  0.1581983506440 -0.1629066245890 1.0
Ag     2 -0.2296320038012 -0.1581983506440  0.1629066245890 1.0
Ag     2 -0.2371131694267  0.1218999572714  0.4499410510930 1.0
Ag     2  0.2371131694267 -0.1218999572714 -0.4499410510930 1.0
Ag     2  0.0060767875022 -0.4547580131268 -0.2277016026329 1.0
Ag     2 -0.0060767875022  0.4547580131268  0.2277016026329 1.0
END
