TITL 4Ag2SE-200803-155102-5a0817 -0.0038 229.455194 -4.61181350E+004 0 0 12 (Cc) n - 1
REM
REM Run started: Mon, 03 Aug 2020 17:25:19 +0100 in /lustre/scratch/uccabz1/launch_tmp/launcher_2020-08-03-14-51-01-107409
REM CASTEP 20.1 from code version af48c487+ pr-geom-scf-spinfix Tue Jun 2 15:39:59 2020 +0100
REM Functional PBE for solids (2008) Relativity Koelling-Harmon Dispersion off
REM Cut-off 300.0000 eV Grid scale 1.7500 Gmax 15.5288 1/A FBSC none
REM MP grid 3 3 3 Offset 0.000 0.000 0.000 No. kpts 10 Spacing 0.07
REM Total runtime: 6241.04 s
REM Overall efficiency: 94 %
REM
REM 4Ag2SE.cell (6404a18c6b5dc90313b5c56acf317f23)
REM
REM compiler GCC version 4.9.2
REM options -cpp -iprefix /lustre/shared/ucl/apps/gcc/4.9.2/bin/../lib/gcc/x86_64-unknown-linux-gnu/4.9.2/ -mtune=corei7 -march=x86-64 -g -Og
REM COMMAND_LINE
REM seed 1966788009 -1994831484 685776680 -777235884 -1322678953 200824877 -435621553 206555823 1513788182 -566747452 508813000 2061190326
REM
REM Se 3|2.1|7|7|9|40:41:32(qc=5)
REM Ag 3|2.2|7|7|9|40U:50:41:42(qc=5)
REM 
CELL 1.54180    6.98950    6.30268    6.30268   93.57296  112.57609  112.57609
LATT -1
SFAC Se Ag 
Se     1 -0.0957735255554 -0.0600656469346  0.1360351257806 1.0
Se     1  0.4042264744446  0.1360351257806 -0.0600656469346 1.0
Se     1 -0.0149372476713  0.4386430758695 -0.3187383987134 1.0
Se     1  0.4850627523287 -0.3187383987134  0.4386430758695 1.0
Ag     2  0.0362079068137  0.4075180831551  0.1166217432562 1.0
Ag     2 -0.4637920931863  0.1166217432562  0.4075180831551 1.0
Ag     2  0.2268928955431  0.2706667934597 -0.4753867319947 1.0
Ag     2 -0.2731071044569 -0.4753867319947  0.2706667934597 1.0
Ag     2  0.1895520583418 -0.1875838378528 -0.4904230237589 1.0
Ag     2 -0.3104479416582 -0.4904230237589 -0.1875838378528 1.0
Ag     2 -0.0574390874719 -0.0152602822090 -0.2660792000577 1.0
Ag     2  0.4425609125281 -0.2660792000577 -0.0152602822090 1.0
END
