TITL 4Ag2Se_TETRA-200803-164526-6584ad -0.0104 226.714303 -4.61177688E+004 0 0 12 (Pc) n - 1
REM
REM Run started: Mon, 03 Aug 2020 17:06:00 +0100 in /lustre/scratch/uccabz1/launch_tmp/launcher_2020-08-03-15-45-24-483758
REM CASTEP 20.1 from code version af48c487+ pr-geom-scf-spinfix Tue Jun 2 15:39:59 2020 +0100
REM Functional PBE for solids (2008) Relativity Koelling-Harmon Dispersion off
REM Cut-off 300.0000 eV Grid scale 1.7500 Gmax 15.5288 1/A FBSC none
REM MP grid 2 2 4 Offset 0.000 0.000 0.000 No. kpts 4 Spacing 0.07
REM Total runtime: 1354.98 s
REM Overall efficiency: 74.4167 %
REM
REM 4Ag2Se_TETRA.cell (4020362940262d3df87d4014b41eb05e)
REM
REM compiler GCC version 4.9.2
REM options -cpp -iprefix /lustre/shared/ucl/apps/gcc/4.9.2/bin/../lib/gcc/x86_64-unknown-linux-gnu/4.9.2/ -mtune=corei7 -march=x86-64 -g -Og
REM COMMAND_LINE
REM seed -1567548780 -910330268 -158225811 -157699995 377361904 1914336391 852036568 -716028163 72413893 1916504870 -638480161 1591569490
REM
REM Se 3|2.1|7|7|9|40:41:32(qc=5)
REM Ag 3|2.2|7|7|9|40U:50:41:42(qc=5)
REM 
CELL 1.54180    7.63873    7.65040    3.87951   90.00000   90.24455   90.00000
LATT -1
SFAC Se Ag 
Se     1 -0.4790847601500 -0.1933204287746  0.0804697907102 1.0
Se     1  0.0209152398500  0.1933204287746  0.0804697907102 1.0
Se     1 -0.0887112332877 -0.3911878520107 -0.4144289817853 1.0
Se     1  0.4112887667123  0.3911878520107 -0.4144289817853 1.0
Ag     2 -0.2321263483820 -0.0888615252140 -0.4712930488770 1.0
Ag     2  0.2678736516180  0.0888615252140 -0.4712930488770 1.0
Ag     2 -0.2021456874740  0.2617840901355 -0.4195925392197 1.0
Ag     2  0.2978543125260 -0.2617840901355 -0.4195925392197 1.0
Ag     2  0.1454187769891 -0.4783920143015  0.0905861141940 1.0
Ag     2 -0.3545812230109  0.4783920143015  0.0905861141940 1.0
Ag     2 -0.4605492476954  0.1331520195086  0.0253877649778 1.0
Ag     2  0.0394507523046 -0.1331520195086  0.0253877649778 1.0
END
