TITL 4Ag2SE-200803-154822-54e0d0 0.0576 227.283996 -4.61183610E+004 0 0 12 (P212121) n - 1
REM
REM Run started: Mon, 03 Aug 2020 16:02:11 +0100 in /lustre/scratch/uccabz1/launch_tmp/launcher_2020-08-03-14-48-20-290031
REM CASTEP 20.1 from code version af48c487+ pr-geom-scf-spinfix Tue Jun 2 15:39:59 2020 +0100
REM Functional PBE for solids (2008) Relativity Koelling-Harmon Dispersion off
REM Cut-off 300.0000 eV Grid scale 1.7500 Gmax 15.5288 1/A FBSC none
REM MP grid 4 3 2 Offset 0.000 0.000 0.000 No. kpts 4 Spacing 0.07
REM Total runtime: 1005.79 s
REM Overall efficiency: 73.8333 %
REM
REM 4Ag2SE.cell (6404a18c6b5dc90313b5c56acf317f23)
REM
REM compiler GCC version 4.9.2
REM options -cpp -iprefix /lustre/shared/ucl/apps/gcc/4.9.2/bin/../lib/gcc/x86_64-unknown-linux-gnu/4.9.2/ -mtune=corei7 -march=x86-64 -g -Og
REM COMMAND_LINE
REM seed 1240378913 456347411 1871137939 -1640704669 -335992717 1631462275 1979657922 1459505012 -1858820234 -94399711 1397058415 -1245499143
REM
REM Se 3|2.1|7|7|9|40:41:32(qc=5)
REM Ag 3|2.2|7|7|9|40U:50:41:42(qc=5)
REM 
CELL 1.54180    4.38741    5.04627   10.26574   90.00000   90.00000   90.00000
LATT -1
SFAC Se Ag 
Se     1 -0.3737603588959 -0.3239372348370 -0.3707742816448 1.0
Se     1  0.1262396411041  0.3239372348370 -0.1292257183552 1.0
Se     1 -0.1262396411041  0.1760627651630  0.3707742816448 1.0
Se     1  0.3737603588959 -0.1760627651630  0.1292257183552 1.0
Ag     2  0.3458093411211 -0.0936786340917  0.4408446636562 1.0
Ag     2 -0.1541906588789  0.0936786340917  0.0591553363438 1.0
Ag     2  0.1541906588789  0.4063213659083 -0.4408446636562 1.0
Ag     2 -0.3458093411211 -0.4063213659083 -0.0591553363438 1.0
Ag     2  0.3450683363311  0.3336708599219  0.2111446408626 1.0
Ag     2 -0.1549316636689 -0.3336708599219  0.2888553591374 1.0
Ag     2  0.1549316636689 -0.1663291400781 -0.2111446408626 1.0
Ag     2 -0.3450683363311  0.1663291400781 -0.2888553591374 1.0
END
