TITL 4Ag2Se_TETRA-200803-170133-d92cee 0.1636 231.529232 -4.61180818E+004 0 0 12 (P41) n - 1
REM
REM Run started: Mon, 03 Aug 2020 17:23:24 +0100 in /lustre/scratch/uccabz1/launch_tmp/launcher_2020-08-03-16-01-31-454711
REM CASTEP 20.1 from code version af48c487+ pr-geom-scf-spinfix Tue Jun 2 15:39:59 2020 +0100
REM Functional PBE for solids (2008) Relativity Koelling-Harmon Dispersion off
REM Cut-off 300.0000 eV Grid scale 1.7500 Gmax 15.5288 1/A FBSC none
REM MP grid 3 4 3 Offset 0.000 0.000 0.000 No. kpts 6 Spacing 0.07
REM Total runtime: 1443.24 s
REM Overall efficiency: 69.8333 %
REM
REM 4Ag2Se_TETRA.cell (4020362940262d3df87d4014b41eb05e)
REM
REM compiler GCC version 4.9.2
REM options -cpp -iprefix /lustre/shared/ucl/apps/gcc/4.9.2/bin/../lib/gcc/x86_64-unknown-linux-gnu/4.9.2/ -mtune=corei7 -march=x86-64 -g -Og
REM COMMAND_LINE
REM seed 1422781251 -1748811237 568735598 -42838545 449912992 878052550 -370072365 -799556615 -485448480 -1498345236 -1717863824 -654276522
REM
REM Se 3|2.1|7|7|9|40:41:32(qc=5)
REM Ag 3|2.2|7|7|9|40U:50:41:42(qc=5)
REM 
CELL 1.54180    6.98455    4.74602    6.98455   90.00000   90.00000   90.00000
LATT -1
SFAC Se Ag 
Se     1  0.1534662518230  0.1481570394378  0.3454226954120 1.0
Se     1 -0.1534662518230 -0.3518429605622 -0.3454226954120 1.0
Se     1  0.3454226954120  0.3981570394378 -0.1534662518230 1.0
Se     1 -0.3454226954120 -0.1018429605622  0.1534662518230 1.0
Ag     2  0.2450342405905 -0.3649649426357 -0.4873240107166 1.0
Ag     2 -0.2450342405905  0.1350350573643  0.4873240107166 1.0
Ag     2 -0.4873240107166 -0.1149649426357 -0.2450342405905 1.0
Ag     2  0.4873240107166  0.3850350573643  0.2450342405905 1.0
Ag     2  0.0849651820643  0.0521654031980 -0.2493651301565 1.0
Ag     2 -0.0849651820643 -0.4478345968020  0.2493651301565 1.0
Ag     2 -0.2493651301565  0.3021654031980 -0.0849651820643 1.0
Ag     2  0.2493651301565 -0.1978345968020  0.0849651820643 1.0
END
