TITL 4Ag2Se_TETRA_OPT-200811-094215-4df79a 0.0066 223.304551 -4.61184691E+004 0 0 12 (P1) n - 1
REM
REM Run started: Tue, 11 Aug 2020 11:17:34 +0100 in /lustre/scratch/uccabz1/launch_tmp/launcher_2020-08-11-08-42-13-663839
REM CASTEP 20.1 from code version af48c487+ pr-geom-scf-spinfix Tue Jun 2 15:39:59 2020 +0100
REM Functional PBE for solids (2008) Relativity Koelling-Harmon Dispersion off
REM Cut-off 300.0000 eV Grid scale 1.7500 Gmax 15.5288 1/A FBSC none
REM MP grid 3 3 3 Offset 0.000 0.000 0.000 No. kpts 14 Spacing 0.07
REM Total runtime: 5758.08 s
REM Overall efficiency: 92.2222 %
REM
REM 4Ag2Se_TETRA_OPT.cell (db6eaae92e6a5f18c152ebab86a92a61)
REM
REM compiler GCC version 4.9.2
REM options -cpp -iprefix /lustre/shared/ucl/apps/gcc/4.9.2/bin/../lib/gcc/x86_64-unknown-linux-gnu/4.9.2/ -mtune=corei7 -march=x86-64 -g -Og
REM COMMAND_LINE
REM seed -1760342291 69618746 514079037 -918646245 -1332740860 825566862 1512801030 728755012 671462475 -1265830812 -1969000091 1827338738
REM
REM Se 3|2.1|7|7|9|40:41:32(qc=5)
REM Ag 3|2.2|7|7|9|40U:50:41:42(qc=5)
REM 
CELL 1.54180    5.28488    6.81174    6.22114   90.40440   93.36834   87.22023
LATT -1
SFAC Se Ag 
Se     1 -0.3101283098096 -0.1827085475279 -0.4154739632547 1.0
Se     1 -0.3530246374657  0.2878605279603  0.0137745787067 1.0
Se     1  0.3085336411690  0.2632660876932 -0.4421508217635 1.0
Se     1  0.2775834057969 -0.2652720912859 -0.0406096452978 1.0
Ag     2 -0.3769745084013  0.5010126426860  0.3640449489406 1.0
Ag     2 -0.1085401430527  0.1018423291336  0.3668902744920 1.0
Ag     2 -0.2075022757732 -0.2269967998985  0.0736826617011 1.0
Ag     2  0.3851303392164  0.0203606050314  0.2254206731874 1.0
Ag     2  0.0266130279548  0.0755509745355 -0.1406322288472 1.0
Ag     2 -0.0594364230409  0.4714178347167 -0.2584059581207 1.0
Ag     2  0.1817288803075 -0.2572196360979  0.4928106949202 1.0
Ag     2  0.1129646030989  0.4282045730534  0.1872545853359 1.0
END
