TITL 4Ag2SE-200803-155106-bc1acc 0.0077 220.913971 -4.61184139E+004 0 0 12 (Cc) n - 1
REM
REM Run started: Mon, 03 Aug 2020 17:11:43 +0100 in /lustre/scratch/uccabz1/launch_tmp/launcher_2020-08-03-14-51-05-138066
REM CASTEP 20.1 from code version af48c487+ pr-geom-scf-spinfix Tue Jun 2 15:39:59 2020 +0100
REM Functional PBE for solids (2008) Relativity Koelling-Harmon Dispersion off
REM Cut-off 300.0000 eV Grid scale 1.7500 Gmax 15.5288 1/A FBSC none
REM MP grid 4 3 3 Offset 0.000 0.000 0.000 No. kpts 12 Spacing 0.07
REM Total runtime: 4992.48 s
REM Overall efficiency: 72.7 %
REM
REM 4Ag2SE.cell (6404a18c6b5dc90313b5c56acf317f23)
REM
REM compiler GCC version 4.9.2
REM options -cpp -iprefix /lustre/shared/ucl/apps/gcc/4.9.2/bin/../lib/gcc/x86_64-unknown-linux-gnu/4.9.2/ -mtune=corei7 -march=x86-64 -g -Og
REM COMMAND_LINE
REM seed -1345300518 -380460138 -1140897972 1108276479 1244069815 -1909264974 19190014 1610532035 -2085718285 147686218 -2020364322 -837712926
REM
REM Se 3|2.1|7|7|9|40:41:32(qc=5)
REM Ag 3|2.2|7|7|9|40U:50:41:42(qc=5)
REM 
CELL 1.54180    4.50692    7.84926    7.84926  115.43106  104.64071  104.64071
LATT -1
SFAC Se Ag 
Se     1 -0.0444753098298  0.5078350796030 -0.2671215792761 1.0
Se     1 -0.5444753098298 -0.2671215792761  0.5078350796030 1.0
Se     1 -0.4879463416148  0.2800079804206 -0.0681980057198 1.0
Se     1  0.0120536583852 -0.0681980057198  0.2800079804206 1.0
Ag     2 -0.1911200239491  0.1159121837024 -0.3849431057530 1.0
Ag     2  0.3088799760509 -0.3849431057530  0.1159121837024 1.0
Ag     2  0.6263743680075 -0.2494451337439 -0.1110920724674 1.0
Ag     2  0.1263743680075 -0.1110920724674 -0.2494451337439 1.0
Ag     2 -0.4747575194157  0.0648367645411  0.1985822426402 1.0
Ag     2  0.0252424805843  0.1985822426402  0.0648367645411 1.0
Ag     2 -0.2220222731981  0.4934749307567  0.3391379152963 1.0
Ag     2  0.2779777268019  0.3391379152963  0.4934749307567 1.0
END
