TITL 4Ag2Se_TETRA_OPT-200811-113940-375e40 -0.0354 242.169749 -4.61182665E+004 0 0 12 (P1) n - 1
REM
REM Run started: Tue, 11 Aug 2020 13:20:08 +0100 in /lustre/scratch/uccabz1/launch_tmp/launcher_2020-08-11-10-39-39-060948
REM CASTEP 20.1 from code version af48c487+ pr-geom-scf-spinfix Tue Jun 2 15:39:59 2020 +0100
REM Functional PBE for solids (2008) Relativity Koelling-Harmon Dispersion off
REM Cut-off 300.0000 eV Grid scale 1.7500 Gmax 15.5288 1/A FBSC none
REM MP grid 4 2 2 Offset 0.000 0.000 0.000 No. kpts 8 Spacing 0.07
REM Total runtime: 6049.69 s
REM Overall efficiency: 88.25 %
REM
REM 4Ag2Se_TETRA_OPT.cell (db6eaae92e6a5f18c152ebab86a92a61)
REM
REM compiler GCC version 4.9.2
REM options -cpp -iprefix /lustre/shared/ucl/apps/gcc/4.9.2/bin/../lib/gcc/x86_64-unknown-linux-gnu/4.9.2/ -mtune=corei7 -march=x86-64 -g -Og
REM COMMAND_LINE
REM seed 1355038920 -1656844164 -365248305 550131352 -1596107332 495929748 -415108798 2106116900 -927431134 -2077049002 -1965875212 824401024
REM
REM Se 3|2.1|7|7|9|40:41:32(qc=5)
REM Ag 3|2.2|7|7|9|40U:50:41:42(qc=5)
REM 
CELL 1.54180    4.45986    7.48420    7.27298   87.60485   92.43671   88.02402
LATT -1
SFAC Se Ag 
Se     1 -0.4290562644118 -0.4678158060571 -0.1793414652846 1.0
Se     1  0.0189165993272  0.4852998208254  0.2568702227669 1.0
Se     1 -0.0131379014943 -0.0031870039484 -0.3741058998091 1.0
Se     1  0.3854864019095 -0.0114119586780  0.0717187895441 1.0
Ag     2 -0.1874635886198  0.3256887892689 -0.4468145520717 1.0
Ag     2  0.0715760484511 -0.3660476130255 -0.3412886861859 1.0
Ag     2  0.4824219900868  0.0339689177217  0.4267305886255 1.0
Ag     2  0.5283362810547  0.3194044069946  0.1461785153454 1.0
Ag     2 -0.4829103390340 -0.3674594596947  0.4029323751855 1.0
Ag     2 -0.1529344928485 -0.1653341237087 -0.0607965128772 1.0
Ag     2  0.3467310946898  0.2231928964154 -0.2190985873162 1.0
Ag     2 -0.0081979291107 -0.1607702661137  0.3018861120774 1.0
END
