TITL 4Ag2SE-200803-160701-7c2dd4 0.0081 241.660181 -4.61180361E+004 0 0 12 (R3) n - 1
REM
REM Run started: Mon, 03 Aug 2020 16:47:58 +0100 in /lustre/scratch/uccabz1/launch_tmp/launcher_2020-08-03-15-06-57-803587
REM CASTEP 20.1 from code version af48c487+ pr-geom-scf-spinfix Tue Jun 2 15:39:59 2020 +0100
REM Functional PBE for solids (2008) Relativity Koelling-Harmon Dispersion off
REM Cut-off 300.0000 eV Grid scale 1.7500 Gmax 15.5288 1/A FBSC none
REM MP grid 3 3 3 Offset 0.000 0.000 0.000 No. kpts 6 Spacing 0.07
REM Total runtime: 2589.66 s
REM Overall efficiency: 67.1818 %
REM
REM 4Ag2SE.cell (6404a18c6b5dc90313b5c56acf317f23)
REM
REM compiler GCC version 4.9.2
REM options -cpp -iprefix /lustre/shared/ucl/apps/gcc/4.9.2/bin/../lib/gcc/x86_64-unknown-linux-gnu/4.9.2/ -mtune=corei7 -march=x86-64 -g -Og
REM COMMAND_LINE
REM seed -403013043 450689944 -462062081 44999687 620131235 1223607227 968423903 -1681196189 -1297572842 -413348583 360645450 1358581591
REM
REM Se 3|2.1|7|7|9|40:41:32(qc=5)
REM Ag 3|2.2|7|7|9|40U:50:41:42(qc=5)
REM 
CELL 1.54180    6.26436    6.26436    6.26436   83.68699   83.68699   83.68699
LATT -1
SFAC Se Ag 
Se     1  0.4158523115657  0.3853124778748 -0.1689268218416 1.0
Se     1  0.3853124778747 -0.1689268218416  0.4158523115657 1.0
Se     1 -0.1689268218416  0.4158523115657  0.3853124778747 1.0
Se     1 -0.0158340207981 -0.0158340207981 -0.0158340207981 1.0
Ag     2  0.5149413319727 -0.4374738622033  0.1375944958260 1.0
Ag     2 -0.4374738622033  0.1375944958260  0.5149413319727 1.0
Ag     2  0.1375944958260  0.5149413319727 -0.4374738622033 1.0
Ag     2 -0.4222472403148  0.0019706585619  0.0099733817722 1.0
Ag     2  0.0019706585619  0.0099733817722 -0.4222472403148 1.0
Ag     2  0.0099733817722 -0.4222472403148  0.0019706585619 1.0
Ag     2  0.2123368644872  0.2123368644872  0.2123368644872 1.0
Ag     2 -0.3025155769027 -0.3025155769027 -0.3025155769027 1.0
END
