TITL 4Ag2Se_TETRA_OPT-200811-090526-e9fa6f -0.0493 225.359979 -4.61188954E+004 0 0 12 (P212121) n - 1
REM
REM Run started: Tue, 11 Aug 2020 09:35:06 +0100 in /lustre/scratch/uccabz1/launch_tmp/launcher_2020-08-11-08-05-24-871699
REM CASTEP 20.1 from code version af48c487+ pr-geom-scf-spinfix Tue Jun 2 15:39:59 2020 +0100
REM Functional PBE for solids (2008) Relativity Koelling-Harmon Dispersion off
REM Cut-off 300.0000 eV Grid scale 1.7500 Gmax 15.5288 1/A FBSC none
REM MP grid 3 3 3 Offset 0.000 0.000 0.000 No. kpts 8 Spacing 0.07
REM Total runtime: 1901.69 s
REM Overall efficiency: 83 %
REM
REM 4Ag2Se_TETRA_OPT.cell (db6eaae92e6a5f18c152ebab86a92a61)
REM
REM compiler GCC version 4.9.2
REM options -cpp -iprefix /lustre/shared/ucl/apps/gcc/4.9.2/bin/../lib/gcc/x86_64-unknown-linux-gnu/4.9.2/ -mtune=corei7 -march=x86-64 -g -Og
REM COMMAND_LINE
REM seed -647950652 84002926 -2067497371 -2093252838 1346875836 -1186658708 1490613997 -2130698098 -623429121 -988306110 -1934775118 2075786386
REM
REM Se 3|2.1|7|7|9|40:41:32(qc=5)
REM Ag 3|2.2|7|7|9|40U:50:41:42(qc=5)
REM 
CELL 1.54180    5.08324    6.76075    6.55755   90.00000   90.00000   90.00000
LATT -1
SFAC Se Ag 
Se     1  0.1711720242022  0.2905443691654  0.1739641951678 1.0
Se     1 -0.3288279757978  0.2094556308346 -0.1739641951678 1.0
Se     1  0.3288279757978 -0.2905443691654 -0.3260358048322 1.0
Se     1 -0.1711720242022 -0.2094556308346  0.3260358048322 1.0
Ag     2  0.1554378745318 -0.3328824819613  0.0447825228809 1.0
Ag     2 -0.3445621254682 -0.1671175180387 -0.0447825228809 1.0
Ag     2  0.3445621254682  0.3328824819613 -0.4552174771191 1.0
Ag     2 -0.1554378745318  0.1671175180387  0.4552174771191 1.0
Ag     2  0.1495920187588  0.0462393193435 -0.1586726353131 1.0
Ag     2 -0.3504079812412  0.4537606806565  0.1586726353131 1.0
Ag     2  0.3504079812412 -0.0462393193435  0.3413273646869 1.0
Ag     2 -0.1495920187588 -0.4537606806565 -0.3413273646869 1.0
END
