TITL 4Ag2Se_TETRA_OPT-200811-104942-1940b1 -0.0606 229.445062 -4.61184818E+004 0 0 12 (P1) n - 1
REM
REM Run started: Tue, 11 Aug 2020 12:55:47 +0100 in /lustre/scratch/uccabz1/launch_tmp/launcher_2020-08-11-09-49-40-391174
REM CASTEP 20.1 from code version af48c487+ pr-geom-scf-spinfix Tue Jun 2 15:39:59 2020 +0100
REM Functional PBE for solids (2008) Relativity Koelling-Harmon Dispersion off
REM Cut-off 300.0000 eV Grid scale 1.7500 Gmax 15.5288 1/A FBSC none
REM MP grid 4 2 2 Offset 0.000 0.000 0.000 No. kpts 8 Spacing 0.07
REM Total runtime: 8372.81 s
REM Overall efficiency: 93.0833 %
REM
REM 4Ag2Se_TETRA_OPT.cell (db6eaae92e6a5f18c152ebab86a92a61)
REM
REM compiler GCC version 4.9.2
REM options -cpp -iprefix /lustre/shared/ucl/apps/gcc/4.9.2/bin/../lib/gcc/x86_64-unknown-linux-gnu/4.9.2/ -mtune=corei7 -march=x86-64 -g -Og
REM COMMAND_LINE
REM seed 281071699 1976481619 36669680 -1717744742 220350506 -1276586127 -989538391 -1439117455 -1234104266 824290451 -1074624373 -1840662809
REM
REM Se 3|2.1|7|7|9|40:41:32(qc=5)
REM Ag 3|2.2|7|7|9|40U:50:41:42(qc=5)
REM 
CELL 1.54180    4.03074    7.24576    8.04604   89.10128   77.59917   90.78686
LATT -1
SFAC Se Ag 
Se     1 -0.1365996300411  0.0137749303373  0.2136121481907 1.0
Se     1  0.2619728711435  0.0120044737914 -0.2352503807047 1.0
Se     1  0.1282911864225 -0.4615751700831 -0.4420185068561 1.0
Se     1 -0.3318368534869 -0.4854325867807  0.0829010196358 1.0
Ag     2  0.2657931490835 -0.4446395151633 -0.1427817952766 1.0
Ag     2  0.2898513271791  0.0802917179269  0.4414858892003 1.0
Ag     2 -0.3170727931465 -0.1573743490184 -0.0688140785374 1.0
Ag     2  0.2442648245448 -0.2597865794445  0.2670542171900 1.0
Ag     2 -0.0511368199415  0.3564337578561  0.3123080839610 1.0
Ag     2 -0.6006596151685  0.2088584510402  0.0137912755942 1.0
Ag     2 -0.3064315071176 -0.2001024250091 -0.4366133716313 1.0
Ag     2 -0.3123126394712  0.2774482945471 -0.3402381007659 1.0
END
