TITL 4Ag2Se_TETRA_OPT-200811-090526-f536a1 0.0214 223.551457 -4.61185431E+004 0 0 12 (P1) n - 1
REM
REM Run started: Tue, 11 Aug 2020 10:49:52 +0100 in /lustre/scratch/uccabz1/launch_tmp/launcher_2020-08-11-08-05-24-872331
REM CASTEP 20.1 from code version af48c487+ pr-geom-scf-spinfix Tue Jun 2 15:39:59 2020 +0100
REM Functional PBE for solids (2008) Relativity Koelling-Harmon Dispersion off
REM Cut-off 300.0000 eV Grid scale 1.7500 Gmax 15.5288 1/A FBSC none
REM MP grid 4 2 3 Offset 0.000 0.000 0.000 No. kpts 12 Spacing 0.07
REM Total runtime: 7048.19 s
REM Overall efficiency: 84.6154 %
REM
REM 4Ag2Se_TETRA_OPT.cell (db6eaae92e6a5f18c152ebab86a92a61)
REM
REM compiler GCC version 4.9.2
REM options -cpp -iprefix /lustre/shared/ucl/apps/gcc/4.9.2/bin/../lib/gcc/x86_64-unknown-linux-gnu/4.9.2/ -mtune=corei7 -march=x86-64 -g -Og
REM COMMAND_LINE
REM seed 2134753363 1023632543 1172069172 175290763 88058184 262489202 -1539033746 -651773589 307998961 -299184050 1202197882 2084989580
REM
REM Se 3|2.1|7|7|9|40:41:32(qc=5)
REM Ag 3|2.2|7|7|9|40U:50:41:42(qc=5)
REM 
CELL 1.54180    4.54302    7.38682    6.86924  103.03411   90.91543   95.06710
LATT -1
SFAC Se Ag 
Se     1  0.4032104608317 -0.0998267481943  0.0004222702029 1.0
Se     1 -0.0726192495316 -0.1100888123863  0.4206730354639 1.0
Se     1  0.5239843843725  0.4008522775102 -0.5315413315504 1.0
Se     1  0.0049490751592  0.4479011967717  0.0650504081215 1.0
Ag     2  0.0367506449222  0.3181329855247 -0.3299209008696 1.0
Ag     2  0.4735645745767  0.2560057359093 -0.0321210013233 1.0
Ag     2 -0.0960712728970 -0.0086745498916 -0.1710232215946 1.0
Ag     2 -0.3183753979518 -0.3958600978229 -0.1658495518301 1.0
Ag     2  0.4765637240984 -0.3379198458236  0.2404599747324 1.0
Ag     2  0.2128662073231 -0.3094463675561 -0.3766920636785 1.0
Ag     2  0.4637528057102  0.0569070807957 -0.4419534536738 1.0
Ag     2 -0.0015910566136  0.1682701451632  0.2436569359996 1.0
END
