TITL 4Ag2Se_TETRA-200803-162731-451383 -0.0274 231.574149 -4.61172037E+004 0 0 12 (C2) n - 1
REM
REM Run started: Mon, 03 Aug 2020 16:51:07 +0100 in /lustre/scratch/uccabz1/launch_tmp/launcher_2020-08-03-15-27-30-280835
REM CASTEP 20.1 from code version af48c487+ pr-geom-scf-spinfix Tue Jun 2 15:39:59 2020 +0100
REM Functional PBE for solids (2008) Relativity Koelling-Harmon Dispersion off
REM Cut-off 300.0000 eV Grid scale 1.7500 Gmax 15.5288 1/A FBSC none
REM MP grid 3 3 2 Offset 0.000 0.000 0.000 No. kpts 6 Spacing 0.07
REM Total runtime: 1551.81 s
REM Overall efficiency: 72.5 %
REM
REM 4Ag2Se_TETRA.cell (4020362940262d3df87d4014b41eb05e)
REM
REM compiler GCC version 4.9.2
REM options -cpp -iprefix /lustre/shared/ucl/apps/gcc/4.9.2/bin/../lib/gcc/x86_64-unknown-linux-gnu/4.9.2/ -mtune=corei7 -march=x86-64 -g -Og
REM COMMAND_LINE
REM seed -549266843 1817009076 832703226 1068890159 -1297575707 -2133881827 -1195433062 1946529381 1721412054 -1818083327 -556938775 -1822536753
REM
REM Se 3|2.1|7|7|9|40:41:32(qc=5)
REM Ag 3|2.2|7|7|9|40U:50:41:42(qc=5)
REM 
CELL 1.54180    5.57641    5.57641    7.54682   85.65473   85.65473   82.67271
LATT -1
SFAC Se Ag 
Se     1 -0.2764855304119 -0.3474841436977  0.3003991870402 1.0
Se     1  0.3474841436977  0.2764855304119 -0.3003991870402 1.0
Se     1 -0.1152597386204 -0.1290218084373 -0.2011671245583 1.0
Se     1  0.1290218084373  0.1152597386204  0.2011671245583 1.0
Ag     2  0.1231184927655 -0.4902690773538 -0.0074141108849 1.0
Ag     2  0.4902690773538 -0.1231184927655  0.0074141108849 1.0
Ag     2  0.2412511952170 -0.3308328093874  0.3234128286368 1.0
Ag     2  0.3308328093874 -0.2412511952170 -0.3234128286368 1.0
Ag     2 -0.2907759629174  0.4529176782021 -0.1771668892635 1.0
Ag     2 -0.4529176782021  0.2907759629174  0.1771668892635 1.0
Ag     2 -0.0163755339405  0.3391273827664  0.5037249396148 1.0
Ag     2 -0.3391273827664  0.0163755339405 -0.5037249396148 1.0
END
