TITL 4Ag2Se_TETRA-200803-162142-bf554e -0.0547 221.737254 -4.61183101E+004 0 0 12 (P21) n - 1
REM
REM Run started: Mon, 03 Aug 2020 17:15:42 +0100 in /lustre/scratch/uccabz1/launch_tmp/launcher_2020-08-03-15-21-40-517286
REM CASTEP 20.1 from code version af48c487+ pr-geom-scf-spinfix Tue Jun 2 15:39:59 2020 +0100
REM Functional PBE for solids (2008) Relativity Koelling-Harmon Dispersion off
REM Cut-off 300.0000 eV Grid scale 1.7500 Gmax 15.5288 1/A FBSC none
REM MP grid 4 4 2 Offset 0.000 0.000 0.000 No. kpts 8 Spacing 0.07
REM Total runtime: 3575.54 s
REM Overall efficiency: 91.4167 %
REM
REM 4Ag2Se_TETRA.cell (4020362940262d3df87d4014b41eb05e)
REM
REM compiler GCC version 4.9.2
REM options -cpp -iprefix /lustre/shared/ucl/apps/gcc/4.9.2/bin/../lib/gcc/x86_64-unknown-linux-gnu/4.9.2/ -mtune=corei7 -march=x86-64 -g -Og
REM COMMAND_LINE
REM seed -807105689 212839432 -758729768 2058256988 1823578479 -397447411 -134193968 -1281136224 -1593697816 171080714 -1405609749 2005394026
REM
REM Se 3|2.1|7|7|9|40:41:32(qc=5)
REM Ag 3|2.2|7|7|9|40U:50:41:42(qc=5)
REM 
CELL 1.54180    4.08868    4.11699   13.17575   90.00000   90.00000   91.22645
LATT -1
SFAC Se Ag 
Se     1 -0.3610902916302  0.4347008231560  0.4620742358961 1.0
Se     1  0.3610902916302 -0.4347008231560 -0.0379257641039 1.0
Se     1 -0.1023011457660 -0.0463236175609 -0.3165296205293 1.0
Se     1  0.1023011457660  0.0463236175609  0.1834703794707 1.0
Ag     2 -0.0971116068553  0.4686744192169 -0.1852770112236 1.0
Ag     2  0.0971116068553 -0.4686744192169  0.3147229887764 1.0
Ag     2  0.3935549618462  0.0250447340797 -0.1801431104531 1.0
Ag     2 -0.3935549618462 -0.0250447340797  0.3198568895469 1.0
Ag     2 -0.3720363283355  0.4650449628681  0.1413928901535 1.0
Ag     2  0.3720363283355 -0.4650449628681 -0.3586071098465 1.0
Ag     2 -0.1663166913816  0.0642247280422 -0.0150373838436 1.0
Ag     2  0.1663166913816 -0.0642247280422  0.4849626161564 1.0
END
