TITL 4Ag2Se_TETRA_OPT-200811-091429-7cb4cf -0.0528 226.565052 -4.61184125E+004 0 0 12 (P1) n - 1
REM
REM Run started: Tue, 11 Aug 2020 12:00:58 +0100 in /lustre/scratch/uccabz1/launch_tmp/launcher_2020-08-11-08-14-27-495467
REM CASTEP 20.1 from code version af48c487+ pr-geom-scf-spinfix Tue Jun 2 15:39:59 2020 +0100
REM Functional PBE for solids (2008) Relativity Koelling-Harmon Dispersion off
REM Cut-off 300.0000 eV Grid scale 1.7500 Gmax 15.5288 1/A FBSC none
REM MP grid 3 3 3 Offset 0.000 0.000 0.000 No. kpts 14 Spacing 0.07
REM Total runtime: 10023.4 s
REM Overall efficiency: 93.6154 %
REM
REM 4Ag2Se_TETRA_OPT.cell (db6eaae92e6a5f18c152ebab86a92a61)
REM
REM compiler GCC version 4.9.2
REM options -cpp -iprefix /lustre/shared/ucl/apps/gcc/4.9.2/bin/../lib/gcc/x86_64-unknown-linux-gnu/4.9.2/ -mtune=corei7 -march=x86-64 -g -Og
REM COMMAND_LINE
REM seed 434059164 683402531 -1554816070 -1729451833 -707729967 4334997 -1396147538 -1903964398 981050153 1779843231 1680455943 -1599020291
REM
REM Se 3|2.1|7|7|9|40:41:32(qc=5)
REM Ag 3|2.2|7|7|9|40U:50:41:42(qc=5)
REM 
CELL 1.54180    5.13808    6.68055    6.61620   90.19497   89.41696   86.10775
LATT -1
SFAC Se Ag 
Se     1  0.4014364892829 -0.5097902870197  0.3336414927533 1.0
Se     1 -0.0887107722025 -0.4934078769392 -0.1047145343593 1.0
Se     1 -0.1180964152788  0.0656256039614  0.4151520544397 1.0
Se     1  0.2550151362401  0.0074775640587 -0.0993512072007 1.0
Ag     2 -0.5601527880229  0.2716546640974 -0.3348022425874 1.0
Ag     2  0.3934413329552 -0.4027001958266 -0.0610779278713 1.0
Ag     2 -0.2237420670882 -0.2328485299258  0.1834567243911 1.0
Ag     2 -0.2822072286806 -0.1518333333425 -0.2803850010101 1.0
Ag     2 -0.2429222679535  0.1622972471331  0.0065754688623 1.0
Ag     2 -0.1111293815228  0.4743868731180  0.4873549638634 1.0
Ag     2  0.3723297999320  0.0739001138857  0.2848334042329 1.0
Ag     2  0.2273404623389 -0.2200162432004 -0.4385619955140 1.0
END
