TITL 4Ag2Se_TETRA-200803-161734-527db1 -0.0145 233.274810 -4.61183206E+004 0 0 12 (Pc) n - 1
REM
REM Run started: Mon, 03 Aug 2020 16:56:19 +0100 in /lustre/scratch/uccabz1/launch_tmp/launcher_2020-08-03-15-17-33-054378
REM CASTEP 20.1 from code version af48c487+ pr-geom-scf-spinfix Tue Jun 2 15:39:59 2020 +0100
REM Functional PBE for solids (2008) Relativity Koelling-Harmon Dispersion off
REM Cut-off 300.0000 eV Grid scale 1.7500 Gmax 15.5288 1/A FBSC none
REM MP grid 3 3 3 Offset 0.000 0.000 0.000 No. kpts 10 Spacing 0.07
REM Total runtime: 2572.24 s
REM Overall efficiency: 89.75 %
REM
REM 4Ag2Se_TETRA.cell (4020362940262d3df87d4014b41eb05e)
REM
REM compiler GCC version 4.9.2
REM options -cpp -iprefix /lustre/shared/ucl/apps/gcc/4.9.2/bin/../lib/gcc/x86_64-unknown-linux-gnu/4.9.2/ -mtune=corei7 -march=x86-64 -g -Og
REM COMMAND_LINE
REM seed -425959604 886381789 -1305848950 1128043249 -146619495 -359186107 697856273 -239224855 -1754204766 -558864617 155180533 -1336003229
REM
REM Se 3|2.1|7|7|9|40:41:32(qc=5)
REM Ag 3|2.2|7|7|9|40U:50:41:42(qc=5)
REM 
CELL 1.54180    6.04754    6.17909    6.24260   90.00000   90.00000   89.84563
LATT -1
SFAC Se Ag 
Se     1  0.3777020128291  0.4180182233160  0.3266853920186 1.0
Se     1  0.3777020128291 -0.0819817766840 -0.3266853920186 1.0
Se     1 -0.0392034789204 -0.0163571521586  0.1793448048981 1.0
Se     1 -0.0392034789204  0.4836428478414 -0.1793448048981 1.0
Ag     2 -0.4659590677894 -0.4831854533380 -0.2846045465669 1.0
Ag     2 -0.4659590677894  0.0168145466620  0.2846045465669 1.0
Ag     2  0.2902279541486  0.2220518167296 -0.0474213341263 1.0
Ag     2  0.2902279541486 -0.2779481832704  0.0474213341263 1.0
Ag     2 -0.2767780978847 -0.3979482212219  0.1575721021639 1.0
Ag     2 -0.2767780978847  0.1020517787781 -0.1575721021639 1.0
Ag     2 -0.1393996223832  0.2907949866729  0.4569562304250 1.0
Ag     2 -0.1393996223832 -0.2092050133271 -0.4569562304250 1.0
END
