TITL 4Ag2Se_TETRA-200803-164616-76da17 -0.0008 237.240059 -4.61177717E+004 0 0 12 (Pcc2) n - 1
REM
REM Run started: Mon, 03 Aug 2020 16:57:55 +0100 in /lustre/scratch/uccabz1/launch_tmp/launcher_2020-08-03-15-46-14-901811
REM CASTEP 20.1 from code version af48c487+ pr-geom-scf-spinfix Tue Jun 2 15:39:59 2020 +0100
REM Functional PBE for solids (2008) Relativity Koelling-Harmon Dispersion off
REM Cut-off 300.0000 eV Grid scale 1.7500 Gmax 15.5288 1/A FBSC none
REM MP grid 2 2 4 Offset 0.000 0.000 0.000 No. kpts 2 Spacing 0.07
REM Total runtime: 760.31 s
REM Overall efficiency: 60.5 %
REM
REM 4Ag2Se_TETRA.cell (4020362940262d3df87d4014b41eb05e)
REM
REM compiler GCC version 4.9.2
REM options -cpp -iprefix /lustre/shared/ucl/apps/gcc/4.9.2/bin/../lib/gcc/x86_64-unknown-linux-gnu/4.9.2/ -mtune=corei7 -march=x86-64 -g -Og
REM COMMAND_LINE
REM seed 1268482161 503941607 849289800 -770245550 151677596 9215375 -1342673030 1718033849 -1330424844 914137446 -1555021147 -1629215023
REM
REM Se 3|2.1|7|7|9|40:41:32(qc=5)
REM Ag 3|2.2|7|7|9|40U:50:41:42(qc=5)
REM 
CELL 1.54180    7.18711    7.19935    4.58501   90.00000   90.00000   90.00000
LATT -1
SFAC Se Ag 
Se     1  0.3129861504398 -0.2646687113367 -0.2663670438630 1.0
Se     1  0.3129861504398  0.2646687113367  0.2663670438630 1.0
Se     1 -0.1870138495602 -0.2646687113367  0.2663670438630 1.0
Se     1 -0.1870138495602  0.2646687113367 -0.2663670438630 1.0
Ag     2 -0.0304564371619  0.3656372947215  0.2327947332857 1.0
Ag     2 -0.0304564371619 -0.3656372947215 -0.2327947332857 1.0
Ag     2  0.4695435628381  0.3656372947215 -0.2327947332857 1.0
Ag     2  0.4695435628381 -0.3656372947215  0.2327947332857 1.0
Ag     2  0.1447700867220  0.1285314819700 -0.2523142427053 1.0
Ag     2  0.1447700867220 -0.1285314819700  0.2523142427053 1.0
Ag     2 -0.3552299132780  0.1285314819700  0.2523142427053 1.0
Ag     2 -0.3552299132780 -0.1285314819700 -0.2523142427053 1.0
END
