TITL 4Ag2SE-200803-160651-701f04 0.0731 231.462430 -4.61181623E+004 0 0 12 (C2) n - 1
REM
REM Run started: Mon, 03 Aug 2020 17:07:08 +0100 in /lustre/scratch/uccabz1/launch_tmp/launcher_2020-08-03-15-06-49-416826
REM CASTEP 20.1 from code version af48c487+ pr-geom-scf-spinfix Tue Jun 2 15:39:59 2020 +0100
REM Functional PBE for solids (2008) Relativity Koelling-Harmon Dispersion off
REM Cut-off 300.0000 eV Grid scale 1.7500 Gmax 15.5288 1/A FBSC none
REM MP grid 3 3 2 Offset 0.000 0.000 0.000 No. kpts 6 Spacing 0.07
REM Total runtime: 4049.01 s
REM Overall efficiency: 75.1667 %
REM
REM 4Ag2SE.cell (6404a18c6b5dc90313b5c56acf317f23)
REM
REM compiler GCC version 4.9.2
REM options -cpp -iprefix /lustre/shared/ucl/apps/gcc/4.9.2/bin/../lib/gcc/x86_64-unknown-linux-gnu/4.9.2/ -mtune=corei7 -march=x86-64 -g -Og
REM COMMAND_LINE
REM seed 863235396 139693584 -1933801268 -1651770865 1475587851 -555198634 336666249 -1836365073 -1470803206 -2036982115 -1505346755 -6555158
REM
REM Se 3|2.1|7|7|9|40:41:32(qc=5)
REM Ag 3|2.2|7|7|9|40U:50:41:42(qc=5)
REM 
CELL 1.54180    5.06224    5.06224    9.03263   89.88142   89.88142   90.51983
LATT -1
SFAC Se Ag 
Se     1 -0.2707430107255 -0.3363459013634  0.1709017873887 1.0
Se     1  0.3363459013634  0.2707430107255 -0.1709017873887 1.0
Se     1  0.3404068358696  0.2717797114438  0.3221515103442 1.0
Se     1 -0.2717797114438 -0.3404068358696 -0.3221515103442 1.0
Ag     2 -0.1558141065503  0.0809892775504  0.3478060462528 1.0
Ag     2 -0.0809892775504  0.1558141065503 -0.3478060462528 1.0
Ag     2  0.0295228915498 -0.4079253923655  0.4550156624545 1.0
Ag     2  0.4079253923655 -0.0295228915498 -0.4550156624545 1.0
Ag     2 -0.3328019409819 -0.0376919021242 -0.0508715027155 1.0
Ag     2  0.0376919021242  0.3328019409819  0.0508715027155 1.0
Ag     2  0.1555376327206 -0.2282237912590 -0.1521548648320 1.0
Ag     2  0.2282237912590 -0.1555376327206  0.1521548648320 1.0
END
