TITL 4Ag2Se_TETRA_OPT-200811-112825-361876 0.0265 223.924656 -4.61184098E+004 0 0 12 (P1) n - 1
REM
REM Run started: Tue, 11 Aug 2020 13:59:12 +0100 in /lustre/scratch/uccabz1/launch_tmp/launcher_2020-08-11-10-28-23-478404
REM CASTEP 20.1 from code version af48c487+ pr-geom-scf-spinfix Tue Jun 2 15:39:59 2020 +0100
REM Functional PBE for solids (2008) Relativity Koelling-Harmon Dispersion off
REM Cut-off 300.0000 eV Grid scale 1.7500 Gmax 15.5288 1/A FBSC none
REM MP grid 3 3 3 Offset 0.000 0.000 0.000 No. kpts 14 Spacing 0.07
REM Total runtime: 9258.91 s
REM Overall efficiency: 95.1667 %
REM
REM 4Ag2Se_TETRA_OPT.cell (db6eaae92e6a5f18c152ebab86a92a61)
REM
REM compiler GCC version 4.9.2
REM options -cpp -iprefix /lustre/shared/ucl/apps/gcc/4.9.2/bin/../lib/gcc/x86_64-unknown-linux-gnu/4.9.2/ -mtune=corei7 -march=x86-64 -g -Og
REM COMMAND_LINE
REM seed 2119872919 327836784 -2030135570 481918934 -976188094 -1726225890 -162969730 -909134970 1601447851 1418861635 -1168430948 1586238160
REM
REM Se 3|2.1|7|7|9|40:41:32(qc=5)
REM Ag 3|2.2|7|7|9|40U:50:41:42(qc=5)
REM 
CELL 1.54180    5.11358    6.90176    6.38094   92.38928   86.71636   85.58904
LATT -1
SFAC Se Ag 
Se     1  0.0877108419241  0.0165797495787 -0.0153862532789 1.0
Se     1 -0.3955010038591  0.4075719543511 -0.1672577429914 1.0
Se     1  0.2700628520749  0.3981433186573  0.3619607280256 1.0
Se     1 -0.2711979089257 -0.2093276044183 -0.5509045457821 1.0
Ag     2  0.2297386815703 -0.2623159770137 -0.3996754622195 1.0
Ag     2  0.1020858923490  0.3780858482108 -0.2269269817331 1.0
Ag     2  0.4882976771314  0.0613797030860 -0.3001193004208 1.0
Ag     2  0.2764951717635 -0.3256979369906  0.0794568747106 1.0
Ag     2 -0.2211481703461 -0.2514919340769 -0.1054291361018 1.0
Ag     2 -0.0050518455232  0.0985959956145  0.4427471510249 1.0
Ag     2 -0.4662562022707  0.0568858222094  0.1885142497283 1.0
Ag     2 -0.1916086858884  0.4301534607918  0.1999817190381 1.0
END
