TITL 4Ag2Se_TETRA_OPT-200811-095604-6764c5 -0.0546 230.555302 -4.61182941E+004 0 0 12 (Cm) n - 1
REM
REM Run started: Tue, 11 Aug 2020 11:01:55 +0100 in /lustre/scratch/uccabz1/launch_tmp/launcher_2020-08-11-08-56-01-437600
REM CASTEP 20.1 from code version af48c487+ pr-geom-scf-spinfix Tue Jun 2 15:39:59 2020 +0100
REM Functional PBE for solids (2008) Relativity Koelling-Harmon Dispersion off
REM Cut-off 300.0000 eV Grid scale 1.7500 Gmax 15.5288 1/A FBSC none
REM MP grid 4 2 2 Offset 0.000 0.000 0.000 No. kpts 6 Spacing 0.07
REM Total runtime: 4390.5 s
REM Overall efficiency: 77.4167 %
REM
REM 4Ag2Se_TETRA_OPT.cell (db6eaae92e6a5f18c152ebab86a92a61)
REM
REM compiler GCC version 4.9.2
REM options -cpp -iprefix /lustre/shared/ucl/apps/gcc/4.9.2/bin/../lib/gcc/x86_64-unknown-linux-gnu/4.9.2/ -mtune=corei7 -march=x86-64 -g -Og
REM COMMAND_LINE
REM seed 1578018569 796673982 -1076371099 995232154 -1098739768 1068056034 1625211854 -238085308 -2131990073 1985447308 -466309557 -1677546512
REM
REM Se 3|2.1|7|7|9|40:41:32(qc=5)
REM Ag 3|2.2|7|7|9|40U:50:41:42(qc=5)
REM 
CELL 1.54180    4.13397    7.51218    7.51218   98.11502   87.78884   87.78884
LATT -1
SFAC Se Ag 
Se     1 -0.3155153850949 -0.3854243532825  0.1431866026392 1.0
Se     1 -0.3155153850949  0.1431866026392 -0.3854243532825 1.0
Se     1  0.2409379845599 -0.3619551491731 -0.3619551491731 1.0
Se     1  0.5385143832348  0.1038898771854  0.1038898771854 1.0
Ag     2 -0.1669619282591 -0.1936833102521  0.4489642060945 1.0
Ag     2 -0.1669619282591  0.4489642060945 -0.1936833102521 1.0
Ag     2  0.1593328506102  0.1296460337856  0.3858532024952 1.0
Ag     2  0.1593328506102  0.3858532024952  0.1296460337856 1.0
Ag     2  0.1372837693505 -0.1620595697494  0.0967384287404 1.0
Ag     2  0.1372837693505  0.0967384287404 -0.1620595697494 1.0
Ag     2 -0.3398369260903 -0.1768882982493 -0.1768882982493 1.0
Ag     2 -0.3485432549178 -0.5792537702340 -0.5792537702340 1.0
END
