TITL 4Ag2Se_TETRA-200803-163559-fb20ae -0.0583 228.234087 -4.61170244E+004 0 0 12 (C2/m) n - 1
REM
REM Run started: Mon, 03 Aug 2020 17:17:24 +0100 in /lustre/scratch/uccabz1/launch_tmp/launcher_2020-08-03-15-35-57-948816
REM CASTEP 20.1 from code version af48c487+ pr-geom-scf-spinfix Tue Jun 2 15:39:59 2020 +0100
REM Functional PBE for solids (2008) Relativity Koelling-Harmon Dispersion off
REM Cut-off 300.0000 eV Grid scale 1.7500 Gmax 15.5288 1/A FBSC none
REM MP grid 3 3 3 Offset 0.000 0.000 0.000 No. kpts 10 Spacing 0.07
REM Total runtime: 2724.06 s
REM Overall efficiency: 91.0833 %
REM
REM 4Ag2Se_TETRA.cell (4020362940262d3df87d4014b41eb05e)
REM
REM compiler GCC version 4.9.2
REM options -cpp -iprefix /lustre/shared/ucl/apps/gcc/4.9.2/bin/../lib/gcc/x86_64-unknown-linux-gnu/4.9.2/ -mtune=corei7 -march=x86-64 -g -Og
REM COMMAND_LINE
REM seed -2141910035 -1661543005 133837371 -1744353449 -380567537 -1722173436 1961802110 708129775 270878545 -1354912221 -1044357520 -396133171
REM
REM Se 3|2.1|7|7|9|40:41:32(qc=5)
REM Ag 3|2.2|7|7|9|40U:50:41:42(qc=5)
REM 
CELL 1.54180    6.75836    5.82926    5.82926   94.17330   86.72468   86.72468
LATT -1
SFAC Se Ag 
Se     1 -0.3911323500000 -0.1522574000000  0.0977426000000 1.0
Se     1  0.1088676500000  0.0977426000000 -0.1522574000000 1.0
Se     1  0.1088676500000 -0.4022574000000  0.3477426000000 1.0
Se     1 -0.3911323500000  0.3477426000000 -0.4022574000000 1.0
Ag     2  0.4435551883737  0.2533364426018  0.0033364426018 1.0
Ag     2 -0.0564448116263  0.0033364426018  0.2533364426018 1.0
Ag     2 -0.0564448116263  0.5033364426018 -0.2466635573982 1.0
Ag     2  0.4435551883737 -0.2466635573982  0.5033364426018 1.0
Ag     2  0.2741801116263 -0.3078512426018 -0.0578512426018 1.0
Ag     2 -0.2258198883737 -0.0578512426018 -0.3078512426018 1.0
Ag     2 -0.2258198883737  0.4421487573982  0.1921487573982 1.0
Ag     2  0.2741801116263  0.1921487573982  0.4421487573982 1.0
END
