TITL 4Ag2Se_TETRA_OPT-200811-110842-2f6384 -0.0066 223.872836 -4.61186975E+004 0 0 12 (Pca21) n - 1
REM
REM Run started: Tue, 11 Aug 2020 12:02:56 +0100 in /lustre/scratch/uccabz1/launch_tmp/launcher_2020-08-11-10-08-40-683513
REM CASTEP 20.1 from code version af48c487+ pr-geom-scf-spinfix Tue Jun 2 15:39:59 2020 +0100
REM Functional PBE for solids (2008) Relativity Koelling-Harmon Dispersion off
REM Cut-off 300.0000 eV Grid scale 1.7500 Gmax 15.5288 1/A FBSC none
REM MP grid 3 3 3 Offset 0.000 0.000 0.000 No. kpts 8 Spacing 0.07
REM Total runtime: 3766.83 s
REM Overall efficiency: 93.625 %
REM
REM 4Ag2Se_TETRA_OPT.cell (db6eaae92e6a5f18c152ebab86a92a61)
REM
REM compiler GCC version 4.9.2
REM options -cpp -iprefix /lustre/shared/ucl/apps/gcc/4.9.2/bin/../lib/gcc/x86_64-unknown-linux-gnu/4.9.2/ -mtune=corei7 -march=x86-64 -g -Og
REM COMMAND_LINE
REM seed 648343476 2076090397 -559988947 1823113113 294684023 -1318476092 665363029 -1520321653 1670942028 -1657652412 109048891 -1301943908
REM
REM Se 3|2.1|7|7|9|40:41:32(qc=5)
REM Ag 3|2.2|7|7|9|40U:50:41:42(qc=5)
REM 
CELL 1.54180    4.93347    6.86067    6.61427   90.00000   90.00000   90.00000
LATT -1
SFAC Se Ag 
Se     1  0.5087185454404 -0.2945516797752 -0.4472038034800 1.0
Se     1  0.0087185454404  0.2945516797752  0.4472038034800 1.0
Se     1  0.5087185454404  0.2945516797752  0.0527961965200 1.0
Se     1  0.0087185454404 -0.2945516797752 -0.0527961965200 1.0
Ag     2 -0.4900098988358  0.3203236224202 -0.3587020139749 1.0
Ag     2  0.0099901011642 -0.3203236224202  0.3587020139749 1.0
Ag     2 -0.4900098988358 -0.3203236224202  0.1412979860251 1.0
Ag     2  0.0099901011642  0.3203236224202 -0.1412979860251 1.0
Ag     2 -0.1328896466047  0.0255897622271  0.1423063102253 1.0
Ag     2  0.3671103533953 -0.0255897622271 -0.1423063102253 1.0
Ag     2 -0.1328896466047 -0.0255897622271 -0.3576936897747 1.0
Ag     2  0.3671103533953  0.0255897622271  0.3576936897747 1.0
END
