TITL 4Ag2Se_TETRA_OPT-200811-113719-ac7fa4 0.0589 221.093787 -4.61185590E+004 0 0 12 (P-1) n - 1
REM
REM Run started: Tue, 11 Aug 2020 13:14:21 +0100 in /lustre/scratch/uccabz1/launch_tmp/launcher_2020-08-11-10-37-17-745187
REM CASTEP 20.1 from code version af48c487+ pr-geom-scf-spinfix Tue Jun 2 15:39:59 2020 +0100
REM Functional PBE for solids (2008) Relativity Koelling-Harmon Dispersion off
REM Cut-off 300.0000 eV Grid scale 1.7500 Gmax 15.5288 1/A FBSC none
REM MP grid 4 3 2 Offset 0.000 0.000 0.000 No. kpts 12 Spacing 0.07
REM Total runtime: 5906.91 s
REM Overall efficiency: 84.8182 %
REM
REM 4Ag2Se_TETRA_OPT.cell (db6eaae92e6a5f18c152ebab86a92a61)
REM
REM compiler GCC version 4.9.2
REM options -cpp -iprefix /lustre/shared/ucl/apps/gcc/4.9.2/bin/../lib/gcc/x86_64-unknown-linux-gnu/4.9.2/ -mtune=corei7 -march=x86-64 -g -Og
REM COMMAND_LINE
REM seed 266219506 84002926 1611521768 -732490442 939779607 -532056185 1022223849 1490763762 164481813 1917940886 1979708549 -1445685344
REM
REM Se 3|2.1|7|7|9|40:41:32(qc=5)
REM Ag 3|2.2|7|7|9|40U:50:41:42(qc=5)
REM 
CELL 1.54180    4.47773    6.84406    7.39526   84.78972   96.93940   81.43485
LATT -1
SFAC Se Ag 
Se     1 -0.2100763861118 -0.2743973099819  0.4010739475559 1.0
Se     1  0.2100763861118  0.2743973099819 -0.4010739475559 1.0
Se     1 -0.1600281651831  0.2192719850520  0.1236402791451 1.0
Se     1  0.1600281651831 -0.2192719850520 -0.1236402791451 1.0
Ag     2 -0.2884034778663  0.1325629308441 -0.5413837258197 1.0
Ag     2  0.2884034778663 -0.1325629308441  0.5413837258197 1.0
Ag     2  0.3207208132868 -0.4869855689011  0.3067761548646 1.0
Ag     2 -0.3207208132868  0.4869855689011 -0.3067761548646 1.0
Ag     2 -0.2600836211170 -0.3802186321417  0.0533056447140 1.0
Ag     2  0.2600836211170  0.3802186321417 -0.0533056447140 1.0
Ag     2  0.3640438111814 -0.0303813772300  0.1651238353004 1.0
Ag     2 -0.3640438111814  0.0303813772300 -0.1651238353004 1.0
END
