TITL 4Ag2Se_TETRA_OPT-200811-090526-779a9c 0.1104 222.485778 -4.61185335E+004 0 0 12 (P1) n - 1
REM
REM Run started: Tue, 11 Aug 2020 11:10:08 +0100 in /lustre/scratch/uccabz1/launch_tmp/launcher_2020-08-11-08-05-24-872168
REM CASTEP 20.1 from code version af48c487+ pr-geom-scf-spinfix Tue Jun 2 15:39:59 2020 +0100
REM Functional PBE for solids (2008) Relativity Koelling-Harmon Dispersion off
REM Cut-off 300.0000 eV Grid scale 1.7500 Gmax 15.5288 1/A FBSC none
REM MP grid 4 3 2 Offset 0.000 0.000 0.000 No. kpts 12 Spacing 0.07
REM Total runtime: 8182.54 s
REM Overall efficiency: 88.0833 %
REM
REM 4Ag2Se_TETRA_OPT.cell (db6eaae92e6a5f18c152ebab86a92a61)
REM
REM compiler GCC version 4.9.2
REM options -cpp -iprefix /lustre/shared/ucl/apps/gcc/4.9.2/bin/../lib/gcc/x86_64-unknown-linux-gnu/4.9.2/ -mtune=corei7 -march=x86-64 -g -Og
REM COMMAND_LINE
REM seed 1588685867 1756055167 1810223572 -1132772846 1997215112 -1802908763 -806568711 319422274 322054590 -1871282550 -1492974866 -628867728
REM
REM Se 3|2.1|7|7|9|40:41:32(qc=5)
REM Ag 3|2.2|7|7|9|40U:50:41:42(qc=5)
REM 
CELL 1.54180    4.45948    6.92497    7.33149   86.38311   86.28764   99.07907
LATT -1
SFAC Se Ag 
Se     1  0.3282430541990 -0.0726090071020 -0.2154705023951 1.0
Se     1  0.3038551060820  0.4512837051309 -0.4835687160556 1.0
Se     1 -0.3722248432241  0.3527346707415  0.0134388611723 1.0
Se     1 -0.2902363200425 -0.0982283455187  0.3112695199984 1.0
Ag     2  0.2590365578839  0.0773679329865  0.4387530969888 1.0
Ag     2  0.0958122739150  0.1069326037812  0.0593700723121 1.0
Ag     2 -0.1520100421218  0.1880976148438 -0.2888054668172 1.0
Ag     2  0.1869625043524 -0.4765622285760 -0.1272927158519 1.0
Ag     2 -0.1239383373470 -0.2912803421264 -0.3987249908232 1.0
Ag     2 -0.2814246208595 -0.2526695969920 -0.0210710392427 1.0
Ag     2  0.1779892766282 -0.3036394223216  0.2253516883216 1.0
Ag     2 -0.1835157094656  0.3386897151528  0.3422257923924 1.0
END
