TITL 4Ag2Se_TETRA-200803-170146-614f47 0.0087 224.212003 -4.61179461E+004 0 0 12 (P21/m) n - 1
REM
REM Run started: Mon, 03 Aug 2020 17:24:28 +0100 in /lustre/scratch/uccabz1/launch_tmp/launcher_2020-08-03-16-01-44-379867
REM CASTEP 20.1 from code version af48c487+ pr-geom-scf-spinfix Tue Jun 2 15:39:59 2020 +0100
REM Functional PBE for solids (2008) Relativity Koelling-Harmon Dispersion off
REM Cut-off 300.0000 eV Grid scale 1.7500 Gmax 15.5288 1/A FBSC none
REM MP grid 3 2 4 Offset 0.000 0.000 0.000 No. kpts 6 Spacing 0.07
REM Total runtime: 1492.99 s
REM Overall efficiency: 71.0833 %
REM
REM 4Ag2Se_TETRA.cell (4020362940262d3df87d4014b41eb05e)
REM
REM compiler GCC version 4.9.2
REM options -cpp -iprefix /lustre/shared/ucl/apps/gcc/4.9.2/bin/../lib/gcc/x86_64-unknown-linux-gnu/4.9.2/ -mtune=corei7 -march=x86-64 -g -Og
REM COMMAND_LINE
REM seed -408053820 -1082777862 112293338 1271923751 -1069527134 530350548 129511384 -298322566 -230261797 -548064652 298873458 746900582
REM
REM Se 3|2.1|7|7|9|40:41:32(qc=5)
REM Ag 3|2.2|7|7|9|40U:50:41:42(qc=5)
REM 
CELL 1.54180    6.57075    8.45002    4.04162   90.00000   90.00000   92.36224
LATT -1
SFAC Se Ag 
Se     1 -0.2123294054778  0.4089299353959  0.2500000000000 1.0
Se     1  0.2123294054778 -0.4089299353959 -0.2500000000000 1.0
Se     1  0.3948228955445  0.1882832442828 -0.2500000000000 1.0
Se     1 -0.3948228955445 -0.1882832442828  0.2500000000000 1.0
Ag     2  0.0258552563423 -0.2593849943051  0.2500000000000 1.0
Ag     2 -0.0258552563423  0.2593849943051 -0.2500000000000 1.0
Ag     2 -0.1339332093860 -0.0607018466022 -0.2500000000000 1.0
Ag     2  0.1339332093860  0.0607018466022  0.2500000000000 1.0
Ag     2 -0.3246989526295  0.1177889370697  0.2500000000000 1.0
Ag     2  0.3246989526295 -0.1177889370697 -0.2500000000000 1.0
Ag     2  0.2506305074407  0.3807968963586  0.2500000000000 1.0
Ag     2 -0.2506305074407 -0.3807968963586 -0.2500000000000 1.0
END
