TITL 4Ag2Se_TETRA_OPT-200811-110916-c74a8f -0.0074 223.805828 -4.61185245E+004 0 0 12 (P2/c) n - 1
REM
REM Run started: Tue, 11 Aug 2020 11:35:10 +0100 in /lustre/scratch/uccabz1/launch_tmp/launcher_2020-08-11-10-09-14-749133
REM CASTEP 20.1 from code version af48c487+ pr-geom-scf-spinfix Tue Jun 2 15:39:59 2020 +0100
REM Functional PBE for solids (2008) Relativity Koelling-Harmon Dispersion off
REM Cut-off 300.0000 eV Grid scale 1.7500 Gmax 15.5288 1/A FBSC none
REM MP grid 4 3 3 Offset 0.000 0.000 0.000 No. kpts 12 Spacing 0.07
REM Total runtime: 1582.5 s
REM Overall efficiency: 74 %
REM
REM 4Ag2Se_TETRA_OPT.cell (db6eaae92e6a5f18c152ebab86a92a61)
REM
REM compiler GCC version 4.9.2
REM options -cpp -iprefix /lustre/shared/ucl/apps/gcc/4.9.2/bin/../lib/gcc/x86_64-unknown-linux-gnu/4.9.2/ -mtune=corei7 -march=x86-64 -g -Og
REM COMMAND_LINE
REM seed 1540418395 -150992798 -2008770397 1525599705 -1935230281 47204846 -711381126 -653905884 1290336737 1384013856 -1982582578 298763014
REM
REM Se 3|2.1|7|7|9|40:41:32(qc=5)
REM Ag 3|2.2|7|7|9|40U:50:41:42(qc=5)
REM 
CELL 1.54180    4.69351    6.89457    6.91637   90.00000   90.42620   90.00000
LATT -1
SFAC Se Ag 
Se     1 -0.2609178288186  0.2921929925149  0.4490331118408 1.0
Se     1  0.2609178288186  0.2921929925149  0.0509668881592 1.0
Se     1  0.2609178288186 -0.2921929925149 -0.4490331118408 1.0
Se     1 -0.2609178288186 -0.2921929925149 -0.0509668881592 1.0
Ag     2  0.2484935955208  0.0386027487037  0.3624986327233 1.0
Ag     2 -0.2484935955208  0.0386027487037  0.1375013672767 1.0
Ag     2 -0.2484935955208 -0.0386027487037 -0.3624986327233 1.0
Ag     2  0.2484935955208 -0.0386027487037 -0.1375013672767 1.0
Ag     2  0.2458561704110  0.3236206985155 -0.3528729498162 1.0
Ag     2 -0.2458561704110  0.3236206985155 -0.1471270501838 1.0
Ag     2 -0.2458561704110 -0.3236206985155  0.3528729498162 1.0
Ag     2  0.2458561704110 -0.3236206985155  0.1471270501838 1.0
END
