TITL 4Ag2SE-200803-160126-6c2c1e -0.0834 227.377765 -4.61181895E+004 0 0 12 (P21/m) n - 1
REM
REM Run started: Mon, 03 Aug 2020 16:30:41 +0100 in /lustre/scratch/uccabz1/launch_tmp/launcher_2020-08-03-15-01-24-489662
REM CASTEP 20.1 from code version af48c487+ pr-geom-scf-spinfix Tue Jun 2 15:39:59 2020 +0100
REM Functional PBE for solids (2008) Relativity Koelling-Harmon Dispersion off
REM Cut-off 300.0000 eV Grid scale 1.7500 Gmax 15.5288 1/A FBSC none
REM MP grid 4 2 3 Offset 0.000 0.000 0.000 No. kpts 12 Spacing 0.07
REM Total runtime: 1863.24 s
REM Overall efficiency: 78.5 %
REM
REM 4Ag2SE.cell (6404a18c6b5dc90313b5c56acf317f23)
REM
REM compiler GCC version 4.9.2
REM options -cpp -iprefix /lustre/shared/ucl/apps/gcc/4.9.2/bin/../lib/gcc/x86_64-unknown-linux-gnu/4.9.2/ -mtune=corei7 -march=x86-64 -g -Og
REM COMMAND_LINE
REM seed -1447529070 1089327632 580507207 -6564428 556778371 765370452 839722731 2065849437 -1197084704 138373156 1577672886 -1133572552
REM
REM Se 3|2.1|7|7|9|40:41:32(qc=5)
REM Ag 3|2.2|7|7|9|40U:50:41:42(qc=5)
REM 
CELL 1.54180    4.15738    7.76776    7.58049   68.25677   90.09981   90.43605
LATT -1
SFAC Se Ag 
Se     1  0.2483842727506  0.2212100295290 -0.4215997970775 1.0
Se     1 -0.2483842727506 -0.2212100295290  0.4215997970775 1.0
Se     1  0.2528725213640 -0.2278736254725 -0.0156525823866 1.0
Se     1 -0.2528725213640  0.2278736254725  0.0156525823866 1.0
Ag     2 -0.2501567606276  0.4324945478186 -0.3588517491511 1.0
Ag     2  0.2501567606276 -0.4324945478186  0.3588517491511 1.0
Ag     2  0.2461549799773  0.0044688918936  0.1985987379430 1.0
Ag     2 -0.2461549799773 -0.0044688918936 -0.1985987379430 1.0
Ag     2  0.2553210473577 -0.1584195966615 -0.3879281110042 1.0
Ag     2 -0.2553210473577  0.1584195966615  0.3879281110042 1.0
Ag     2  0.2505891219856  0.4729727264912 -0.1179656927187 1.0
Ag     2 -0.2505891219856 -0.4729727264912  0.1179656927187 1.0
END
