TITL 4Ag2SE-200803-154822-49ed1e -0.0243 229.525641 -4.61183665E+004 0 0 12 (R3) n - 1
REM
REM Run started: Mon, 03 Aug 2020 16:44:00 +0100 in /lustre/scratch/uccabz1/launch_tmp/launcher_2020-08-03-14-48-20-946347
REM CASTEP 20.1 from code version af48c487+ pr-geom-scf-spinfix Tue Jun 2 15:39:59 2020 +0100
REM Functional PBE for solids (2008) Relativity Koelling-Harmon Dispersion off
REM Cut-off 300.0000 eV Grid scale 1.7500 Gmax 15.5288 1/A FBSC none
REM MP grid 3 3 3 Offset 0.000 0.000 0.000 No. kpts 6 Spacing 0.07
REM Total runtime: 3356.53 s
REM Overall efficiency: 66 %
REM
REM 4Ag2SE.cell (6404a18c6b5dc90313b5c56acf317f23)
REM
REM compiler GCC version 4.9.2
REM options -cpp -iprefix /lustre/shared/ucl/apps/gcc/4.9.2/bin/../lib/gcc/x86_64-unknown-linux-gnu/4.9.2/ -mtune=corei7 -march=x86-64 -g -Og
REM COMMAND_LINE
REM seed -390880957 57972432 1891724165 -2126955171 -1152168111 1986478063 939704359 -1929284035 -250254582 716333324 -1414606933 862987922
REM
REM Se 3|2.1|7|7|9|40:41:32(qc=5)
REM Ag 3|2.2|7|7|9|40U:50:41:42(qc=5)
REM 
CELL 1.54180    6.12433    6.12433    6.12433   88.67248   88.67248   88.67248
LATT -1
SFAC Se Ag 
Se     1 -0.3852308131198 -0.3617857145013  0.1712807854702 1.0
Se     1 -0.3617857145013  0.1712807854702 -0.3852308131198 1.0
Se     1  0.1712807854702 -0.3852308131198 -0.3617857145013 1.0
Se     1  0.1636896272903  0.1636896272903  0.1636896272903 1.0
Ag     2 -0.0718321615705 -0.1487271286007  0.3734740728482 1.0
Ag     2 -0.1487271286007  0.3734740728482 -0.0718321615705 1.0
Ag     2  0.3734740728482 -0.0718321615705 -0.1487271286007 1.0
Ag     2  0.1946272362623 -0.4077020938649  0.1081704332311 1.0
Ag     2 -0.4077020938649  0.1081704332311  0.1946272362623 1.0
Ag     2  0.1081704332311  0.1946272362623 -0.4077020938649 1.0
Ag     2 -0.3908602044464 -0.3908602044464 -0.3908602044464 1.0
Ag     2 -0.1215989389985 -0.1215989389985 -0.1215989389985 1.0
END
