TITL 4Ag2Se_TETRA_OPT-200811-111806-7a9770 0.0200 214.909501 -4.61186111E+004 0 0 12 (P21) n - 1
REM
REM Run started: Tue, 11 Aug 2020 12:52:37 +0100 in /lustre/scratch/uccabz1/launch_tmp/launcher_2020-08-11-10-18-04-476444
REM CASTEP 20.1 from code version af48c487+ pr-geom-scf-spinfix Tue Jun 2 15:39:59 2020 +0100
REM Functional PBE for solids (2008) Relativity Koelling-Harmon Dispersion off
REM Cut-off 300.0000 eV Grid scale 1.7500 Gmax 15.5288 1/A FBSC none
REM MP grid 4 2 3 Offset 0.000 0.000 0.000 No. kpts 12 Spacing 0.07
REM Total runtime: 5897.61 s
REM Overall efficiency: 80.1 %
REM
REM 4Ag2Se_TETRA_OPT.cell (db6eaae92e6a5f18c152ebab86a92a61)
REM
REM compiler GCC version 4.9.2
REM options -cpp -iprefix /lustre/shared/ucl/apps/gcc/4.9.2/bin/../lib/gcc/x86_64-unknown-linux-gnu/4.9.2/ -mtune=corei7 -march=x86-64 -g -Og
REM COMMAND_LINE
REM seed -576816420 -1943111193 -1312049931 -603352230 -1704788927 1852902010 201434744 1069739351 -208965614 2079949120 819359607 -1981899017
REM
REM Se 3|2.1|7|7|9|40:41:32(qc=5)
REM Ag 3|2.2|7|7|9|40U:50:41:42(qc=5)
REM 
CELL 1.54180    3.91644    8.27702    6.89228   90.29597   74.13780   90.39177
LATT -1
SFAC Se Ag 
Se     1 -0.0736564216082  0.3387134869919 -0.2761062028235 1.0
Se     1  0.6227235817329  0.0891623654733  0.1429599857867 1.0
Se     1  0.5041029643336 -0.1619032974802 -0.4340905328808 1.0
Se     1 -0.2049297108401 -0.4129963776674  0.1457813223616 1.0
Ag     2 -0.1321847495261 -0.1562838576047 -0.1432299896030 1.0
Ag     2  0.3699118920122  0.0992492069832 -0.1957160314480 1.0
Ag     2  0.0229389534618  0.0837625486492  0.4718773466700 1.0
Ag     2  0.4018759276677 -0.4144864543757 -0.1795784264787 1.0
Ag     2 -0.4393904841191  0.3419103111798  0.4358251379282 1.0
Ag     2  0.0585123524973 -0.4029525710093  0.4833414289912 1.0
Ag     2  0.2159384591401  0.3354948046366  0.1157894064088 1.0
Ag     2  0.2095643352478 -0.1664925657766  0.1757384550876 1.0
END
