TITL 4Ag2Se_TETRA_OPT-200811-093043-4d51f0 -0.0167 226.463064 -4.61184282E+004 0 0 12 (P1) n - 1
REM
REM Run started: Tue, 11 Aug 2020 11:28:45 +0100 in /lustre/scratch/uccabz1/launch_tmp/launcher_2020-08-11-08-30-42-001388
REM CASTEP 20.1 from code version af48c487+ pr-geom-scf-spinfix Tue Jun 2 15:39:59 2020 +0100
REM Functional PBE for solids (2008) Relativity Koelling-Harmon Dispersion off
REM Cut-off 300.0000 eV Grid scale 1.7500 Gmax 15.5288 1/A FBSC none
REM MP grid 4 3 2 Offset 0.000 0.000 0.000 No. kpts 12 Spacing 0.07
REM Total runtime: 7799.39 s
REM Overall efficiency: 82.75 %
REM
REM 4Ag2Se_TETRA_OPT.cell (db6eaae92e6a5f18c152ebab86a92a61)
REM
REM compiler GCC version 4.9.2
REM options -cpp -iprefix /lustre/shared/ucl/apps/gcc/4.9.2/bin/../lib/gcc/x86_64-unknown-linux-gnu/4.9.2/ -mtune=corei7 -march=x86-64 -g -Og
REM COMMAND_LINE
REM seed 2075981523 684459011 -990364755 -540209913 1842800557 1583130858 -480265960 612450186 -1613721165 696422793 868507049 127475385
REM
REM Se 3|2.1|7|7|9|40:41:32(qc=5)
REM Ag 3|2.2|7|7|9|40U:50:41:42(qc=5)
REM 
CELL 1.54180    4.60642    6.84093    7.30280   93.16669   99.54046   91.41990
LATT -1
SFAC Se Ag 
Se     1  0.5906920574366  0.1187492182954  0.0910921189166 1.0
Se     1 -0.6526433889912 -0.3799852554624  0.2496611535046 1.0
Se     1  0.2681515358348  0.2576677357036 -0.3417309157186 1.0
Se     1 -0.2389707885753 -0.2951569302111 -0.2626534178292 1.0
Ag     2 -0.1160031238780 -0.1679895366687  0.2135175225985 1.0
Ag     2 -0.2677793705011  0.1056052524585  0.5031783564497 1.0
Ag     2 -0.1051301847765 -0.4908499323078  0.4444678265048 1.0
Ag     2  0.1832131493002  0.2055893499583  0.2890757457660 1.0
Ag     2  0.2603666894913 -0.1382693703501 -0.4301278443754 1.0
Ag     2  0.0410118278488  0.0311953135621 -0.1138552645958 1.0
Ag     2  0.3028041953316 -0.3925258316848 -0.1222202827822 1.0
Ag     2 -0.1561086985211  0.4384439867071  0.0262984015611 1.0
END
