TITL 4Ag2Se_TETRA-200803-164144-dc4b79 -0.1741 235.109026 -4.61178598E+004 0 0 12 (P41212) n - 1
REM
REM Run started: Mon, 03 Aug 2020 16:58:18 +0100 in /lustre/scratch/uccabz1/launch_tmp/launcher_2020-08-03-15-41-42-557439
REM CASTEP 20.1 from code version af48c487+ pr-geom-scf-spinfix Tue Jun 2 15:39:59 2020 +0100
REM Functional PBE for solids (2008) Relativity Koelling-Harmon Dispersion off
REM Cut-off 300.0000 eV Grid scale 1.7500 Gmax 15.5288 1/A FBSC none
REM MP grid 3 2 3 Offset 0.000 0.000 0.000 No. kpts 3 Spacing 0.07
REM Total runtime: 1095.11 s
REM Overall efficiency: 69.75 %
REM
REM 4Ag2Se_TETRA.cell (4020362940262d3df87d4014b41eb05e)
REM
REM compiler GCC version 4.9.2
REM options -cpp -iprefix /lustre/shared/ucl/apps/gcc/4.9.2/bin/../lib/gcc/x86_64-unknown-linux-gnu/4.9.2/ -mtune=corei7 -march=x86-64 -g -Og
REM COMMAND_LINE
REM seed 604854990 508663079 -1339508623 -1994795862 -1586001024 -615487215 -1029659291 825506507 -1533050764 -704531763 1057156931 -1714311309
REM
REM Se 3|2.1|7|7|9|40:41:32(qc=5)
REM Ag 3|2.2|7|7|9|40U:50:41:42(qc=5)
REM 
CELL 1.54180    5.58052    7.54954    5.58052   90.00000   90.00000   90.00000
LATT -1
SFAC Se Ag 
Se     1 -0.0779931289750  0.3063942000000 -0.4220068710250 1.0
Se     1  0.0779930289750 -0.1936058000000  0.4220069710250 1.0
Se     1 -0.4220069710250 -0.4436058000000  0.0779931289750 1.0
Se     1  0.4220068710250  0.0563942000000 -0.0779930289750 1.0
Ag     2 -0.3516814694740 -0.1225919918221  0.2634087740877 1.0
Ag     2  0.3516813694740  0.3774080081779 -0.2634086740877 1.0
Ag     2  0.2634086740877  0.1274080081779  0.3516814694740 1.0
Ag     2 -0.2634087740877 -0.3725919918221 -0.3516813694740 1.0
Ag     2 -0.2365913259123  0.2353803918221  0.1483186305260 1.0
Ag     2  0.2365912259123 -0.2646196081779 -0.1483185305260 1.0
Ag     2  0.1483185305260  0.4853803918221  0.2365913259123 1.0
Ag     2 -0.1483186305260 -0.0146196081779 -0.2365912259123 1.0
END
