TITL 4Ag2Se_TETRA-200803-164240-5fcbe5 -0.0856 234.106532 -4.61170446E+004 0 0 12 (C2) n - 1
REM
REM Run started: Mon, 03 Aug 2020 17:09:19 +0100 in /lustre/scratch/uccabz1/launch_tmp/launcher_2020-08-03-15-42-38-537484
REM CASTEP 20.1 from code version af48c487+ pr-geom-scf-spinfix Tue Jun 2 15:39:59 2020 +0100
REM Functional PBE for solids (2008) Relativity Koelling-Harmon Dispersion off
REM Cut-off 300.0000 eV Grid scale 1.7500 Gmax 15.5288 1/A FBSC none
REM MP grid 3 3 2 Offset 0.000 0.000 0.000 No. kpts 6 Spacing 0.07
REM Total runtime: 1756.74 s
REM Overall efficiency: 71.1667 %
REM
REM 4Ag2Se_TETRA.cell (4020362940262d3df87d4014b41eb05e)
REM
REM compiler GCC version 4.9.2
REM options -cpp -iprefix /lustre/shared/ucl/apps/gcc/4.9.2/bin/../lib/gcc/x86_64-unknown-linux-gnu/4.9.2/ -mtune=corei7 -march=x86-64 -g -Og
REM COMMAND_LINE
REM seed 853044562 2039266387 -659148457 -1231279424 -1125420053 -1938609183 164544134 -712564712 -28656551 -12956260 -1919875881 1040888460
REM
REM Se 3|2.1|7|7|9|40:41:32(qc=5)
REM Ag 3|2.2|7|7|9|40U:50:41:42(qc=5)
REM 
CELL 1.54180    5.26300    5.26300    8.46873   92.51870   92.51870   90.57325
LATT -1
SFAC Se Ag 
Se     1  0.2186099063010  0.2536412940427 -0.4328579759645 1.0
Se     1 -0.2536412940427 -0.2186099063010  0.4328579759645 1.0
Se     1 -0.0696910621962 -0.4530167345292 -0.0446277470224 1.0
Se     1  0.4530167345292  0.0696910621962  0.0446277470224 1.0
Ag     2  0.0633514912342  0.0822481276007 -0.1537753842836 1.0
Ag     2 -0.0822481276007 -0.0633514912342  0.1537753842836 1.0
Ag     2 -0.1956966180434  0.4700606727350 -0.3491901945111 1.0
Ag     2 -0.4700606727350  0.1956966180434  0.3491901945111 1.0
Ag     2 -0.4258364176217  0.0144615611060 -0.2696437633743 1.0
Ag     2 -0.0144615611060  0.4258364176217  0.2696437633743 1.0
Ag     2  0.4459405832258 -0.3782049380554  0.1781605698894 1.0
Ag     2  0.3782049380554 -0.4459405832258 -0.1781605698894 1.0
END
