TITL 4Ag2Se_TETRA_OPT-200811-114756-6046fe -0.0325 232.529509 -4.61185164E+004 0 0 12 (P1) n - 1
REM
REM Run started: Tue, 11 Aug 2020 13:41:20 +0100 in /lustre/scratch/uccabz1/launch_tmp/launcher_2020-08-11-10-47-55-038269
REM CASTEP 20.1 from code version af48c487+ pr-geom-scf-spinfix Tue Jun 2 15:39:59 2020 +0100
REM Functional PBE for solids (2008) Relativity Koelling-Harmon Dispersion off
REM Cut-off 300.0000 eV Grid scale 1.7500 Gmax 15.5288 1/A FBSC none
REM MP grid 4 2 3 Offset 0.000 0.000 0.000 No. kpts 12 Spacing 0.07
REM Total runtime: 6954.18 s
REM Overall efficiency: 82.3333 %
REM
REM 4Ag2Se_TETRA_OPT.cell (db6eaae92e6a5f18c152ebab86a92a61)
REM
REM compiler GCC version 4.9.2
REM options -cpp -iprefix /lustre/shared/ucl/apps/gcc/4.9.2/bin/../lib/gcc/x86_64-unknown-linux-gnu/4.9.2/ -mtune=corei7 -march=x86-64 -g -Og
REM COMMAND_LINE
REM seed 1161822130 2023202038 1319759124 -1948914332 677767008 1239458728 1833308323 2006864221 -1911980915 318176113 -2111527527 -1510894192
REM
REM Se 3|2.1|7|7|9|40:41:32(qc=5)
REM Ag 3|2.2|7|7|9|40U:50:41:42(qc=5)
REM 
CELL 1.54180    4.21556    7.91272    7.29015   92.50203   73.29807   88.66071
LATT -1
SFAC Se Ag 
Se     1 -0.0781747817677 -0.1916444490302  0.3999691391889 1.0
Se     1 -0.0542088204190  0.0597177501059 -0.0537364929727 1.0
Se     1 -0.5457122945839 -0.4086084732374 -0.0937714195617 1.0
Se     1  0.2563662989959  0.3346417800569  0.3149148272203 1.0
Ag     2 -0.0517213266707  0.3922466839024 -0.0352329483002 1.0
Ag     2 -0.4601383475879 -0.0656184265518 -0.2721667580967 1.0
Ag     2 -0.2754893031846  0.1147339683254  0.3529736442270 1.0
Ag     2  0.3725064314440 -0.0611193467027  0.1299666373137 1.0
Ag     2  0.0855019209575 -0.3333472343253 -0.3198180053983 1.0
Ag     2  0.1049031651053  0.1795475104140 -0.3782965680687 1.0
Ag     2  0.5401320257794 -0.3760484551911  0.2736477126522 1.0
Ag     2 -0.3564566680684  0.4244142922338 -0.4266038682040 1.0
END
