TITL 4Ag2Se_TETRA_OPT-200811-113125-9e95d4 0.0213 228.938299 -4.61184316E+004 0 0 12 (P2) n - 1
REM
REM Run started: Tue, 11 Aug 2020 12:54:46 +0100 in /lustre/scratch/uccabz1/launch_tmp/launcher_2020-08-11-10-31-24-155913
REM CASTEP 20.1 from code version af48c487+ pr-geom-scf-spinfix Tue Jun 2 15:39:59 2020 +0100
REM Functional PBE for solids (2008) Relativity Koelling-Harmon Dispersion off
REM Cut-off 300.0000 eV Grid scale 1.7500 Gmax 15.5288 1/A FBSC none
REM MP grid 3 3 3 Offset 0.000 0.000 0.000 No. kpts 14 Spacing 0.07
REM Total runtime: 5050.3 s
REM Overall efficiency: 93.2222 %
REM
REM 4Ag2Se_TETRA_OPT.cell (db6eaae92e6a5f18c152ebab86a92a61)
REM
REM compiler GCC version 4.9.2
REM options -cpp -iprefix /lustre/shared/ucl/apps/gcc/4.9.2/bin/../lib/gcc/x86_64-unknown-linux-gnu/4.9.2/ -mtune=corei7 -march=x86-64 -g -Og
REM COMMAND_LINE
REM seed -521312131 -131902035 -178684018 344541270 611333716 -2019927206 -501188159 -1260658320 997801408 1077722289 925189763 -1459592436
REM
REM Se 3|2.1|7|7|9|40:41:32(qc=5)
REM Ag 3|2.2|7|7|9|40U:50:41:42(qc=5)
REM 
CELL 1.54180    5.05403    6.99434    6.47644   89.84045   90.06802   90.00331
LATT -1
SFAC Se Ag 
Se     1  0.2639789121362  0.2642037062746  0.2877944807701 1.0
Se     1 -0.2939457033634  0.2089239423738 -0.2103375241128 1.0
Se     1 -0.2927394532572 -0.2362528217795  0.2624126512748 1.0
Se     1  0.2619801766768 -0.2910507672917 -0.2350013847676 1.0
Ag     2 -0.2489259618125 -0.1768755693246 -0.1628988789870 1.0
Ag     2 -0.2591183020218  0.4837341310679 -0.4765198259597 1.0
Ag     2  0.2280209322430 -0.3508949863388  0.3407694081490 1.0
Ag     2  0.2256356569877  0.3224513042263 -0.2851146090412 1.0
Ag     2  0.2508582145203 -0.0133841753298  0.0263900897561 1.0
Ag     2 -0.2469739503488  0.1507983655925  0.2158212113961 1.0
Ag     2 -0.0767558448021 -0.5130917192038  0.0265099412899 1.0
Ag     2  0.0589422230418 -0.0137531102670 -0.4738732597677 1.0
END
