TITL 4Ag2Se_TETRA_OPT-200811-100416-48470f -0.0318 219.886746 -4.61184679E+004 0 0 12 (P1) n - 1
REM
REM Run started: Tue, 11 Aug 2020 11:23:23 +0100 in /lustre/scratch/uccabz1/launch_tmp/launcher_2020-08-11-09-04-14-173369
REM CASTEP 20.1 from code version af48c487+ pr-geom-scf-spinfix Tue Jun 2 15:39:59 2020 +0100
REM Functional PBE for solids (2008) Relativity Koelling-Harmon Dispersion off
REM Cut-off 300.0000 eV Grid scale 1.7500 Gmax 15.5288 1/A FBSC none
REM MP grid 3 3 3 Offset 0.000 0.000 0.000 No. kpts 14 Spacing 0.07
REM Total runtime: 4880.78 s
REM Overall efficiency: 93.5 %
REM
REM 4Ag2Se_TETRA_OPT.cell (db6eaae92e6a5f18c152ebab86a92a61)
REM
REM compiler GCC version 4.9.2
REM options -cpp -iprefix /lustre/shared/ucl/apps/gcc/4.9.2/bin/../lib/gcc/x86_64-unknown-linux-gnu/4.9.2/ -mtune=corei7 -march=x86-64 -g -Og
REM COMMAND_LINE
REM seed -506223101 1814296469 142563077 -1268706953 -1239359954 -463899085 -1163283464 -1671400533 -1336285909 698640717 -696499701 1696087987
REM
REM Se 3|2.1|7|7|9|40:41:32(qc=5)
REM Ag 3|2.2|7|7|9|40U:50:41:42(qc=5)
REM 
CELL 1.54180    5.22370    7.09113    5.95094   90.77435   87.96358   86.62810
LATT -1
SFAC Se Ag 
Se     1 -0.2444365606789 -0.5439908276064 -0.4177093844297 1.0
Se     1  0.2375909288763  0.4813690326817  0.0415193072847 1.0
Se     1  0.1405607140247  0.0397027840289  0.5494931761048 1.0
Se     1 -0.3777856100363  0.0700598453255 -0.0820369455515 1.0
Ag     2 -0.2548851754661  0.4157189264011  0.0792336615512 1.0
Ag     2 -0.0374562521272 -0.2370933712733 -0.1463518127743 1.0
Ag     2  0.4768804012951 -0.2201774456289  0.1294140560920 1.0
Ag     2  0.2675967946234  0.4084090764550  0.5072264817512 1.0
Ag     2  0.1065173801537  0.0943754632956  0.0954503691678 1.0
Ag     2  0.4735438808472 -0.2354456643164 -0.3867345696008 1.0
Ag     2 -0.0311337336960 -0.2618309512833  0.3419502775686 1.0
Ag     2 -0.3616484678157  0.1049198319204  0.3817329828360 1.0
END
