TITL 4Ag2SE-200803-160703-4c6b8d 0.0335 223.515915 -4.61185137E+004 0 0 12 (P21212) n - 1
REM
REM Run started: Mon, 03 Aug 2020 16:47:46 +0100 in /lustre/scratch/uccabz1/launch_tmp/launcher_2020-08-03-15-07-01-421768
REM CASTEP 20.1 from code version af48c487+ pr-geom-scf-spinfix Tue Jun 2 15:39:59 2020 +0100
REM Functional PBE for solids (2008) Relativity Koelling-Harmon Dispersion off
REM Cut-off 300.0000 eV Grid scale 1.7500 Gmax 15.5288 1/A FBSC none
REM MP grid 4 3 3 Offset 0.000 0.000 0.000 No. kpts 8 Spacing 0.07
REM Total runtime: 2494.52 s
REM Overall efficiency: 89.125 %
REM
REM 4Ag2SE.cell (6404a18c6b5dc90313b5c56acf317f23)
REM
REM compiler GCC version 4.9.2
REM options -cpp -iprefix /lustre/shared/ucl/apps/gcc/4.9.2/bin/../lib/gcc/x86_64-unknown-linux-gnu/4.9.2/ -mtune=corei7 -march=x86-64 -g -Og
REM COMMAND_LINE
REM seed 834521197 1461483561 1359367958 -85154754 1634562497 -1627456532 791455717 64056541 -720186192 -329819585 1161979336 1273893369
REM
REM Se 3|2.1|7|7|9|40:41:32(qc=5)
REM Ag 3|2.2|7|7|9|40U:50:41:42(qc=5)
REM 
CELL 1.54180    4.69387    6.93679    6.86467   90.00000   90.00000   90.00000
LATT -1
SFAC Se Ag 
Se     1  0.2392861885276 -0.2080464334847 -0.3030218835619 1.0
Se     1 -0.2392861885276 -0.2080464334847  0.3030218835619 1.0
Se     1 -0.2607138114724  0.2080464334847 -0.1969781164381 1.0
Se     1  0.2607138114724  0.2080464334847  0.1969781164381 1.0
Ag     2 -0.2501911607429 -0.4640439290773 -0.3866411359695 1.0
Ag     2  0.2501911607429 -0.4640439290773  0.3866411359695 1.0
Ag     2  0.2498088392571  0.4640439290773 -0.1133588640305 1.0
Ag     2 -0.2498088392571  0.4640439290773  0.1133588640305 1.0
Ag     2  0.2530549245854 -0.1766057133011  0.1044262398331 1.0
Ag     2 -0.2530549245854 -0.1766057133011 -0.1044262398331 1.0
Ag     2 -0.2469450754146  0.1766057133011  0.3955737601669 1.0
Ag     2  0.2469450754146  0.1766057133011 -0.3955737601669 1.0
END
