TITL 4Ag2Se_TETRA-200803-170346-d35192 -0.0186 233.199635 -4.61180708E+004 0 0 12 (Pcc2) n - 1
REM
REM Run started: Mon, 03 Aug 2020 17:43:05 +0100 in /lustre/scratch/uccabz1/launch_tmp/launcher_2020-08-03-16-03-45-141487
REM CASTEP 20.1 from code version af48c487+ pr-geom-scf-spinfix Tue Jun 2 15:39:59 2020 +0100
REM Functional PBE for solids (2008) Relativity Koelling-Harmon Dispersion off
REM Cut-off 300.0000 eV Grid scale 1.7500 Gmax 15.5288 1/A FBSC none
REM MP grid 3 3 3 Offset 0.000 0.000 0.000 No. kpts 8 Spacing 0.07
REM Total runtime: 2590.1 s
REM Overall efficiency: 91.0833 %
REM
REM 4Ag2Se_TETRA.cell (4020362940262d3df87d4014b41eb05e)
REM
REM compiler GCC version 4.9.2
REM options -cpp -iprefix /lustre/shared/ucl/apps/gcc/4.9.2/bin/../lib/gcc/x86_64-unknown-linux-gnu/4.9.2/ -mtune=corei7 -march=x86-64 -g -Og
REM COMMAND_LINE
REM seed -1564242042 -1940363962 1472054007 1444483796 -2042894964 -1157405902 111738069 1340528006 1230448787 -1325104768 -943122054 776267025
REM
REM Se 3|2.1|7|7|9|40:41:32(qc=5)
REM Ag 3|2.2|7|7|9|40U:50:41:42(qc=5)
REM 
CELL 1.54180    6.34142    6.83504    5.38022   90.00000   90.00000   90.00000
LATT -1
SFAC Se Ag 
Se     1 -0.4292827155225 -0.2924075975947  0.2074690835711 1.0
Se     1 -0.4292827155225  0.2924075975947 -0.2074690835711 1.0
Se     1  0.0707172844775  0.2924075975947  0.2074690835711 1.0
Se     1  0.0707172844775 -0.2924075975947 -0.2074690835711 1.0
Ag     2 -0.2232574261984 -0.0341406529209 -0.2493445943452 1.0
Ag     2 -0.2232574261984  0.0341406529209  0.2493445943452 1.0
Ag     2  0.2767425738016  0.0341406529209 -0.2493445943452 1.0
Ag     2  0.2767425738016 -0.0341406529209  0.2493445943452 1.0
Ag     2 -0.0231687582791  0.3304790630740 -0.3182453130795 1.0
Ag     2 -0.0231687582791 -0.3304790630740  0.3182453130795 1.0
Ag     2  0.4768312417209 -0.3304790630740 -0.3182453130795 1.0
Ag     2  0.4768312417209  0.3304790630740  0.3182453130795 1.0
END
