TITL 4Ag2SE-200803-160655-be9b40 0.0195 220.758838 -4.61181984E+004 0 0 12 (P2/m) n - 1
REM
REM Run started: Mon, 03 Aug 2020 16:55:33 +0100 in /lustre/scratch/uccabz1/launch_tmp/launcher_2020-08-03-15-06-53-449751
REM CASTEP 20.1 from code version af48c487+ pr-geom-scf-spinfix Tue Jun 2 15:39:59 2020 +0100
REM Functional PBE for solids (2008) Relativity Koelling-Harmon Dispersion off
REM Cut-off 300.0000 eV Grid scale 1.7500 Gmax 15.5288 1/A FBSC none
REM MP grid 3 3 2 Offset 0.000 0.000 0.000 No. kpts 6 Spacing 0.07
REM Total runtime: 2977.21 s
REM Overall efficiency: 80.9 %
REM
REM 4Ag2SE.cell (6404a18c6b5dc90313b5c56acf317f23)
REM
REM compiler GCC version 4.9.2
REM options -cpp -iprefix /lustre/shared/ucl/apps/gcc/4.9.2/bin/../lib/gcc/x86_64-unknown-linux-gnu/4.9.2/ -mtune=corei7 -march=x86-64 -g -Og
REM COMMAND_LINE
REM seed 308890240 1795785496 1935544742 3352953 1036050217 1583833261 1171750363 1898180677 433240300 2090376184 61976310 1752698375
REM
REM Se 3|2.1|7|7|9|40:41:32(qc=5)
REM Ag 3|2.2|7|7|9|40U:50:41:42(qc=5)
REM 
CELL 1.54180    5.18981    5.77643    7.37481   90.00000   93.11996   90.00000
LATT -1
SFAC Se Ag 
Se     1 -0.2561695161756 -0.2578196424226 -0.2729297966973 1.0
Se     1  0.2561695161756 -0.2578196424226  0.2729297966973 1.0
Se     1  0.2363334423641  0.2426013742370 -0.1372001392990 1.0
Se     1 -0.2363334423641  0.2426013742370  0.1372001392990 1.0
Ag     2  0.2420121732870 -0.2630218855742 -0.0933538158328 1.0
Ag     2 -0.2420121732870 -0.2630218855742  0.0933538158328 1.0
Ag     2 -0.2669250028919  0.2382707085995 -0.2408107458593 1.0
Ag     2  0.2669250028919  0.2382707085995  0.2408107458593 1.0
Ag     2  0.2542358876880  0.4856585013453 -0.4286879272288 1.0
Ag     2 -0.2542358876880  0.4856585013453  0.4286879272288 1.0
Ag     2  0.2541033667624 -0.0097884561850 -0.4253809821131 1.0
Ag     2 -0.2541033667624 -0.0097884561850  0.4253809821131 1.0
END
