TITL 4Ag2Se_TETRA_OPT-200811-092504-196394 -0.1101 224.030559 -4.61185510E+004 0 0 12 (P1) n - 1
REM
REM Run started: Tue, 11 Aug 2020 11:51:22 +0100 in /lustre/scratch/uccabz1/launch_tmp/launcher_2020-08-11-08-25-03-171924
REM CASTEP 20.1 from code version af48c487+ pr-geom-scf-spinfix Tue Jun 2 15:39:59 2020 +0100
REM Functional PBE for solids (2008) Relativity Koelling-Harmon Dispersion off
REM Cut-off 300.0000 eV Grid scale 1.7500 Gmax 15.5288 1/A FBSC none
REM MP grid 3 3 3 Offset 0.000 0.000 0.000 No. kpts 14 Spacing 0.07
REM Total runtime: 9750.4 s
REM Overall efficiency: 95.5833 %
REM
REM 4Ag2Se_TETRA_OPT.cell (db6eaae92e6a5f18c152ebab86a92a61)
REM
REM compiler GCC version 4.9.2
REM options -cpp -iprefix /lustre/shared/ucl/apps/gcc/4.9.2/bin/../lib/gcc/x86_64-unknown-linux-gnu/4.9.2/ -mtune=corei7 -march=x86-64 -g -Og
REM COMMAND_LINE
REM seed 984220975 -1216868517 1471469859 -1015920662 -452358189 -1391754217 -129964672 -1347452092 -1890704606 -2073366749 384621398 -1986612500
REM
REM Se 3|2.1|7|7|9|40:41:32(qc=5)
REM Ag 3|2.2|7|7|9|40U:50:41:42(qc=5)
REM 
CELL 1.54180    4.93073    6.67299    6.81801   87.97016   90.39766   87.89082
LATT -1
SFAC Se Ag 
Se     1  0.4929773474089 -0.2429671762650  0.5190759447481 1.0
Se     1 -0.1787770945423 -0.3619079182843 -0.0249912495761 1.0
Se     1  0.0003836050834  0.1465944217142 -0.4516548615126 1.0
Se     1 -0.4172083046666  0.1266640383682 -0.0697502262957 1.0
Ag     2  0.1484166595070  0.3389245495680 -0.0898847474558 1.0
Ag     2 -0.1287046774145 -0.1028935468542  0.2585632448063 1.0
Ag     2 -0.4931901971246  0.3558243119971 -0.4114754289482 1.0
Ag     2  0.2202495841497 -0.1377561714884 -0.1250278995248 1.0
Ag     2 -0.1814927661598  0.3486755294278  0.2440327174099 1.0
Ag     2  0.2957843092929  0.5855703192695  0.2160638048049 1.0
Ag     2  0.3480958676642  0.1138253102961  0.2682913182138 1.0
Ag     2 -0.0062262331984 -0.4052583677490 -0.4196549166699 1.0
END
