TITL 4Ag2Se_TETRA-200803-165944-6dea40 0.0342 237.955900 -4.61169372E+004 0 0 12 (P222) n - 1
REM
REM Run started: Mon, 03 Aug 2020 17:20:59 +0100 in /lustre/scratch/uccabz1/launch_tmp/launcher_2020-08-03-15-59-42-525344
REM CASTEP 20.1 from code version af48c487+ pr-geom-scf-spinfix Tue Jun 2 15:39:59 2020 +0100
REM Functional PBE for solids (2008) Relativity Koelling-Harmon Dispersion off
REM Cut-off 300.0000 eV Grid scale 1.7500 Gmax 15.5288 1/A FBSC none
REM MP grid 3 2 3 Offset 0.000 0.000 0.000 No. kpts 4 Spacing 0.07
REM Total runtime: 1398.56 s
REM Overall efficiency: 73.25 %
REM
REM 4Ag2Se_TETRA.cell (4020362940262d3df87d4014b41eb05e)
REM
REM compiler GCC version 4.9.2
REM options -cpp -iprefix /lustre/shared/ucl/apps/gcc/4.9.2/bin/../lib/gcc/x86_64-unknown-linux-gnu/4.9.2/ -mtune=corei7 -march=x86-64 -g -Og
REM COMMAND_LINE
REM seed 45964495 -350054356 -570488320 892933895 1335783420 -1402786153 -1551701016 1170196354 326991892 564063840 -821969712 -375127980
REM
REM Se 3|2.1|7|7|9|40:41:32(qc=5)
REM Ag 3|2.2|7|7|9|40U:50:41:42(qc=5)
REM 
CELL 1.54180    6.22398    7.77196    4.91923   90.00000   90.00000   90.00000
LATT -1
SFAC Se Ag 
Se     1 -0.2762461827394 -0.2327159433535  0.2610511873367 1.0
Se     1  0.2762461827394  0.2327159433535  0.2610511873367 1.0
Se     1  0.2762461827394 -0.2327159433535 -0.2610511873367 1.0
Se     1 -0.2762461827394  0.2327159433535 -0.2610511873367 1.0
Ag     2 -0.1732228318744  0.1073296041471  0.2347136829946 1.0
Ag     2  0.1732228318744 -0.1073296041471  0.2347136829946 1.0
Ag     2  0.1732228318744  0.1073296041471 -0.2347136829946 1.0
Ag     2 -0.1732228318744 -0.1073296041471 -0.2347136829946 1.0
Ag     2 -0.2906324177496 -0.4337668291474 -0.2496504620545 1.0
Ag     2  0.2906324177496  0.4337668291474 -0.2496504620545 1.0
Ag     2  0.2906324177496 -0.4337668291474  0.2496504620545 1.0
Ag     2 -0.2906324177496  0.4337668291474  0.2496504620545 1.0
END
