TITL 4Ag2Se_TETRA-200803-165602-419378 -0.0066 226.339304 -4.61173480E+004 0 0 12 (Cc) n - 1
REM
REM Run started: Mon, 03 Aug 2020 17:34:03 +0100 in /lustre/scratch/uccabz1/launch_tmp/launcher_2020-08-03-15-56-01-156427
REM CASTEP 20.1 from code version af48c487+ pr-geom-scf-spinfix Tue Jun 2 15:39:59 2020 +0100
REM Functional PBE for solids (2008) Relativity Koelling-Harmon Dispersion off
REM Cut-off 300.0000 eV Grid scale 1.7500 Gmax 15.5288 1/A FBSC none
REM MP grid 3 3 3 Offset 0.000 0.000 0.000 No. kpts 10 Spacing 0.07
REM Total runtime: 2516.42 s
REM Overall efficiency: 90.75 %
REM
REM 4Ag2Se_TETRA.cell (4020362940262d3df87d4014b41eb05e)
REM
REM compiler GCC version 4.9.2
REM options -cpp -iprefix /lustre/shared/ucl/apps/gcc/4.9.2/bin/../lib/gcc/x86_64-unknown-linux-gnu/4.9.2/ -mtune=corei7 -march=x86-64 -g -Og
REM COMMAND_LINE
REM seed -955370087 -768275499 1428071540 -1349684017 -1880642038 -1050561527 -1947303266 1833944623 591246475 1587857202 -1184020696 836414737
REM
REM Se 3|2.1|7|7|9|40:41:32(qc=5)
REM Ag 3|2.2|7|7|9|40U:50:41:42(qc=5)
REM 
CELL 1.54180    5.89107    6.57386    5.89107   90.62997   97.14788   90.62997
LATT -1
SFAC Se Ag 
Se     1 -0.3491212438516  0.0546858978823  0.3147231995722 1.0
Se     1  0.3147231995722 -0.4453141021177 -0.3491212438516 1.0
Se     1 -0.1348875871072 -0.4442242935363  0.0837685638681 1.0
Se     1  0.0837685638681  0.0557757064637 -0.1348875871072 1.0
Ag     2 -0.4754617600093  0.4503315524984  0.3080464756888 1.0
Ag     2  0.3080464756888 -0.0496684475016 -0.4754617600093 1.0
Ag     2 -0.1195359071067  0.3467073869090 -0.3684031197654 1.0
Ag     2 -0.3684031197654 -0.1532926130910 -0.1195359071067 1.0
Ag     2  0.2618122557402 -0.2510899937297  0.1054542910416 1.0
Ag     2  0.1054542910416  0.2489100062703  0.2618122557402 1.0
Ag     2 -0.4742251373900  0.2503972499763 -0.1189319306808 1.0
Ag     2 -0.1189319306808 -0.2496027500237 -0.4742251373900 1.0
END
