TITL 4Ag2Se_TETRA_OPT-200811-093426-111940 0.0449 230.384579 -4.61185689E+004 0 0 12 (P1) n - 1
REM
REM Run started: Tue, 11 Aug 2020 10:42:22 +0100 in /lustre/scratch/uccabz1/launch_tmp/launcher_2020-08-11-08-34-24-983816
REM CASTEP 20.1 from code version af48c487+ pr-geom-scf-spinfix Tue Jun 2 15:39:59 2020 +0100
REM Functional PBE for solids (2008) Relativity Koelling-Harmon Dispersion off
REM Cut-off 300.0000 eV Grid scale 1.7500 Gmax 15.5288 1/A FBSC none
REM MP grid 4 2 2 Offset 0.000 0.000 0.000 No. kpts 8 Spacing 0.07
REM Total runtime: 4912.36 s
REM Overall efficiency: 94.25 %
REM
REM 4Ag2Se_TETRA_OPT.cell (db6eaae92e6a5f18c152ebab86a92a61)
REM
REM compiler GCC version 4.9.2
REM options -cpp -iprefix /lustre/shared/ucl/apps/gcc/4.9.2/bin/../lib/gcc/x86_64-unknown-linux-gnu/4.9.2/ -mtune=corei7 -march=x86-64 -g -Og
REM COMMAND_LINE
REM seed -1655709814 1336793135 -1792247330 -404751916 -1731918100 -99970471 1686400130 -1217482916 127685222 -923880469 1052560050 -338678183
REM
REM Se 3|2.1|7|7|9|40:41:32(qc=5)
REM Ag 3|2.2|7|7|9|40U:50:41:42(qc=5)
REM 
CELL 1.54180    4.33605    7.20817    7.42715   95.52945   86.86304   87.28392
LATT -1
SFAC Se Ag 
Se     1  0.2846778348460 -0.1585359521560  0.0769349213943 1.0
Se     1 -0.0796202801097 -0.2646380594863 -0.4802002157660 1.0
Se     1 -0.2641230555627  0.4038919042712  0.0567691655373 1.0
Se     1  0.4184528800751  0.3196963581846 -0.4346060585945 1.0
Ag     2  0.2742900213206  0.2467529034948 -0.0960547955647 1.0
Ag     2 -0.0553934142068 -0.3859446067202 -0.1700642351101 1.0
Ag     2 -0.0691565879401  0.1018556841941 -0.3778573973641 1.0
Ag     2  0.4164550231384 -0.1401481124818 -0.2712025392828 1.0
Ag     2 -0.4965224500112 -0.0068426099773  0.3720304760382 1.0
Ag     2  0.0557324143018  0.2652625719469  0.2936390375349 1.0
Ag     2 -0.2171502524637  0.0228571957474  0.0068140229883 1.0
Ag     2  0.4279698666122 -0.4062192770174  0.3302912181892 1.0
END
