TITL 4Ag2Se_TETRA_OPT-200811-101037-b0ab50 -0.0259 222.046580 -4.61185071E+004 0 0 12 (Pna21) n - 1
REM
REM Run started: Tue, 11 Aug 2020 10:41:05 +0100 in /lustre/scratch/uccabz1/launch_tmp/launcher_2020-08-11-09-10-32-993231
REM CASTEP 20.1 from code version af48c487+ pr-geom-scf-spinfix Tue Jun 2 15:39:59 2020 +0100
REM Functional PBE for solids (2008) Relativity Koelling-Harmon Dispersion off
REM Cut-off 300.0000 eV Grid scale 1.7500 Gmax 15.5288 1/A FBSC none
REM MP grid 3 3 3 Offset 0.000 0.000 0.000 No. kpts 8 Spacing 0.07
REM Total runtime: 1952.09 s
REM Overall efficiency: 89.4286 %
REM
REM 4Ag2Se_TETRA_OPT.cell (db6eaae92e6a5f18c152ebab86a92a61)
REM
REM compiler GCC version 4.9.2
REM options -cpp -iprefix /lustre/shared/ucl/apps/gcc/4.9.2/bin/../lib/gcc/x86_64-unknown-linux-gnu/4.9.2/ -mtune=corei7 -march=x86-64 -g -Og
REM COMMAND_LINE
REM seed 491181550 1061474594 1178741065 2006594146 1329305193 -1381497231 1843640276 106520553 1619685795 1947180203 1576463614 1308873259
REM
REM Se 3|2.1|7|7|9|40:41:32(qc=5)
REM Ag 3|2.2|7|7|9|40U:50:41:42(qc=5)
REM 
CELL 1.54180    4.94086    6.86365    6.54765   90.00000   90.00000   90.00000
LATT -1
SFAC Se Ag 
Se     1  0.0901524254924  0.3458157425274 -0.2012739162681 1.0
Se     1 -0.0901524254924 -0.1541842574726  0.2012739162681 1.0
Se     1  0.4098475745076  0.3458157425274  0.2987260837319 1.0
Se     1 -0.4098475745076 -0.1541842574726 -0.2987260837319 1.0
Ag     2 -0.1058172804887  0.4526336476290  0.1613178346143 1.0
Ag     2  0.1058172804887 -0.0473663523710 -0.1613178346143 1.0
Ag     2 -0.3941827195113  0.4526336476290 -0.3386821653857 1.0
Ag     2  0.3941827195113 -0.0473663523710  0.3386821653857 1.0
Ag     2 -0.0947812342658  0.1480019098436  0.4683034504256 1.0
Ag     2  0.0947812342658 -0.3519980901563 -0.4683034504256 1.0
Ag     2 -0.4052187657342  0.1480019098436 -0.0316965495744 1.0
Ag     2  0.4052187657342 -0.3519980901563  0.0316965495744 1.0
END
