TITL 4Ag2SE-200803-155107-9526b8 0.0411 228.871172 -4.61178683E+004 0 0 12 (P3) n - 1
REM
REM Run started: Mon, 03 Aug 2020 16:31:46 +0100 in /lustre/scratch/uccabz1/launch_tmp/launcher_2020-08-03-14-51-05-138438
REM CASTEP 20.1 from code version af48c487+ pr-geom-scf-spinfix Tue Jun 2 15:39:59 2020 +0100
REM Functional PBE for solids (2008) Relativity Koelling-Harmon Dispersion off
REM Cut-off 300.0000 eV Grid scale 1.7500 Gmax 15.5288 1/A FBSC none
REM MP grid 4 3 3 Offset 0.000 0.000 0.000 No. kpts 10 Spacing 0.07
REM Total runtime: 2566.85 s
REM Overall efficiency: 93.1429 %
REM
REM 4Ag2SE.cell (6404a18c6b5dc90313b5c56acf317f23)
REM
REM compiler GCC version 4.9.2
REM options -cpp -iprefix /lustre/shared/ucl/apps/gcc/4.9.2/bin/../lib/gcc/x86_64-unknown-linux-gnu/4.9.2/ -mtune=corei7 -march=x86-64 -g -Og
REM COMMAND_LINE
REM seed 1452921012 -1177185614 1077800613 -1500047278 -262813478 1320212796 876667870 -261097848 1791023371 -2032113794 -196983340 1298779571
REM
REM Se 3|2.1|7|7|9|40:41:32(qc=5)
REM Ag 3|2.2|7|7|9|40U:50:41:42(qc=5)
REM 
CELL 1.54180    4.04516    8.08281    8.08281  120.00000   90.00000   90.00000
LATT -1
SFAC Se Ag 
Se     1  0.3851392547478 -0.1264108330015 -0.2942623276910 1.0
Se     1  0.3851392547478 -0.1678514946895  0.1264108330015 1.0
Se     1  0.3851392547478  0.2942623276910  0.1678514946895 1.0
Se     1 -0.2355158317748  0.3333333333333 -0.3333333333333 1.0
Ag     2 -0.1281697629231  0.4866182323567  0.4235091000987 1.0
Ag     2 -0.1281697629231 -0.0631091322580 -0.4866182323567 1.0
Ag     2 -0.1281697629231 -0.4235091000987  0.0631091322580 1.0
Ag     2  0.2165914204245  0.1629558278530  0.4030173079415 1.0
Ag     2  0.2165914204245  0.2400614800885 -0.1629558278530 1.0
Ag     2  0.2165914204245 -0.4030173079415 -0.2400614800885 1.0
Ag     2 -0.1261900288525  0.0000000000000 -0.0000000000000 1.0
Ag     2  0.3743988238796 -0.3333333333333  0.3333333333333 1.0
END
