TITL 4Ag2SE-200803-160658-049c53 0.0287 212.421100 -4.61182986E+004 0 0 12 (C2/m) n - 1
REM
REM Run started: Mon, 03 Aug 2020 16:54:46 +0100 in /lustre/scratch/uccabz1/launch_tmp/launcher_2020-08-03-15-06-56-343156
REM CASTEP 20.1 from code version af48c487+ pr-geom-scf-spinfix Tue Jun 2 15:39:59 2020 +0100
REM Functional PBE for solids (2008) Relativity Koelling-Harmon Dispersion off
REM Cut-off 300.0000 eV Grid scale 1.7500 Gmax 15.5288 1/A FBSC none
REM MP grid 4 3 2 Offset 0.000 0.000 0.000 No. kpts 6 Spacing 0.07
REM Total runtime: 3063.75 s
REM Overall efficiency: 72.3636 %
REM
REM 4Ag2SE.cell (6404a18c6b5dc90313b5c56acf317f23)
REM
REM compiler GCC version 4.9.2
REM options -cpp -iprefix /lustre/shared/ucl/apps/gcc/4.9.2/bin/../lib/gcc/x86_64-unknown-linux-gnu/4.9.2/ -mtune=corei7 -march=x86-64 -g -Og
REM COMMAND_LINE
REM seed 927128322 1864458257 1131809247 -537106683 -1695549811 -1102670797 690880045 779206876 -1953649825 1821395254 -928255272 543788220
REM
REM Se 3|2.1|7|7|9|40:41:32(qc=5)
REM Ag 3|2.2|7|7|9|40U:50:41:42(qc=5)
REM 
CELL 1.54180    4.11794    5.99999    8.78698  101.92300   90.00000   90.00000
LATT -1
SFAC Se Ag 
Se     1  0.2499210612205 -0.2877802898347 -0.1735949680025 1.0
Se     1 -0.2499210612205 -0.2877802898347  0.3264050319975 1.0
Se     1  0.2497926157399  0.2900568217608  0.1187915760555 1.0
Se     1 -0.2497926157399 -0.7099431782392 -0.3812084239445 1.0
Ag     2 -0.2501374647264  0.1863884757317  0.3007248682750 1.0
Ag     2  0.2501374647264  0.1863884757317 -0.1992751317250 1.0
Ag     2 -0.2503038723297 -0.1839823027432 -0.3548556448979 1.0
Ag     2  0.2503038723297 -0.1839823027432  0.1451443551021 1.0
Ag     2  0.2503509208332  0.0014873711704  0.4727714296569 1.0
Ag     2 -0.2503509208332  0.0014873711704 -0.0272285703431 1.0
Ag     2  0.2498987975009 -0.4990877760851 -0.5271855610870 1.0
Ag     2 -0.2498987975009  0.5009122239149 -0.0271855610870 1.0
END
