TITL 4Ag2Se_TETRA-200803-170318-5104e7 0.0738 224.783595 -4.61181221E+004 0 0 12 (Cmce) n - 1
REM
REM Run started: Mon, 03 Aug 2020 17:20:19 +0100 in /lustre/scratch/uccabz1/launch_tmp/launcher_2020-08-03-16-03-16-177940
REM CASTEP 20.1 from code version af48c487+ pr-geom-scf-spinfix Tue Jun 2 15:39:59 2020 +0100
REM Functional PBE for solids (2008) Relativity Koelling-Harmon Dispersion off
REM Cut-off 300.0000 eV Grid scale 1.7500 Gmax 15.5288 1/A FBSC none
REM MP grid 4 3 2 Offset 0.000 0.000 0.000 No. kpts 4 Spacing 0.07
REM Total runtime: 1079.95 s
REM Overall efficiency: 71.7273 %
REM
REM 4Ag2Se_TETRA.cell (4020362940262d3df87d4014b41eb05e)
REM
REM compiler GCC version 4.9.2
REM options -cpp -iprefix /lustre/shared/ucl/apps/gcc/4.9.2/bin/../lib/gcc/x86_64-unknown-linux-gnu/4.9.2/ -mtune=corei7 -march=x86-64 -g -Og
REM COMMAND_LINE
REM seed 1121367315 1899460234 -211884352 608144684 -555677368 838650723 1133202054 -2078477953 -231438383 783601281 -962080759 -1704119035
REM
REM Se 3|2.1|7|7|9|40:41:32(qc=5)
REM Ag 3|2.2|7|7|9|40U:50:41:42(qc=5)
REM 
CELL 1.54180    4.66868    6.22949    7.72890   90.00000   90.00000   90.00000
LATT -1
SFAC Se Ag 
Se     1  0.2500000000000  0.2500000000000 -0.3618597000000 1.0
Se     1 -0.2500000000000 -0.2500000000000 -0.3618597000000 1.0
Se     1 -0.2500000000000  0.2500000000000  0.1381403000000 1.0
Se     1  0.2500000000000 -0.2500000000000  0.1381403000000 1.0
Ag     2  0.2500000000000 -0.1421606806726 -0.1930379554043 1.0
Ag     2 -0.2500000000000  0.1421606806726 -0.1930379554043 1.0
Ag     2 -0.2500000000000 -0.1421606806726  0.3069620445957 1.0
Ag     2  0.2500000000000  0.1421606806726  0.3069620445957 1.0
Ag     2  0.2500000000000  0.3578393193274 -0.0306814445957 1.0
Ag     2 -0.2500000000000 -0.3578393193274 -0.0306814445957 1.0
Ag     2 -0.2500000000000  0.3578393193274  0.4693185554043 1.0
Ag     2  0.2500000000000 -0.3578393193274  0.4693185554043 1.0
END
