TITL 4Ag2SE-200803-160654-fee5bc 0.0731 222.103709 -4.61186238E+004 0 0 12 (P21) n - 1
REM
REM Run started: Mon, 03 Aug 2020 17:47:50 +0100 in /lustre/scratch/uccabz1/launch_tmp/launcher_2020-08-03-15-06-52-934331
REM CASTEP 20.1 from code version af48c487+ pr-geom-scf-spinfix Tue Jun 2 15:39:59 2020 +0100
REM Functional PBE for solids (2008) Relativity Koelling-Harmon Dispersion off
REM Cut-off 300.0000 eV Grid scale 1.7500 Gmax 15.5288 1/A FBSC none
REM MP grid 4 3 2 Offset 0.000 0.000 0.000 No. kpts 8 Spacing 0.07
REM Total runtime: 6251.8 s
REM Overall efficiency: 93.4615 %
REM
REM 4Ag2SE.cell (6404a18c6b5dc90313b5c56acf317f23)
REM
REM compiler GCC version 4.9.2
REM options -cpp -iprefix /lustre/shared/ucl/apps/gcc/4.9.2/bin/../lib/gcc/x86_64-unknown-linux-gnu/4.9.2/ -mtune=corei7 -march=x86-64 -g -Og
REM COMMAND_LINE
REM seed 1586013174 68328034 1128043249 125893043 -1203189868 -400952746 -1756583457 146947360 -600185470 -1790355783 -801925313 -1482787314
REM
REM Se 3|2.1|7|7|9|40:41:32(qc=5)
REM Ag 3|2.2|7|7|9|40U:50:41:42(qc=5)
REM 
CELL 1.54180    4.37715    6.71699    7.56260   90.00000   92.69462   90.00000
LATT -1
SFAC Se Ag 
Se     1 -0.0766602021275 -0.2424618118989 -0.4156355808023 1.0
Se     1  0.0766602021275  0.2575381881011  0.4156355808023 1.0
Se     1 -0.3496578014186 -0.2706374699035  0.1235940700535 1.0
Se     1  0.3496578014186  0.2293625300965 -0.1235940700535 1.0
Ag     2  0.4436551307064 -0.4313998976557 -0.5530927960310 1.0
Ag     2 -0.4436551307064  0.0686001023443  0.5530927960310 1.0
Ag     2 -0.1131150293835 -0.0241722831147 -0.1130470470685 1.0
Ag     2  0.1131150293835  0.4758277168853  0.1130470470685 1.0
Ag     2  0.3616075824508 -0.3071556591249 -0.1812541926274 1.0
Ag     2 -0.3616075824508  0.1928443408751  0.1812541926274 1.0
Ag     2  0.1747245978237 -0.0893539783024  0.2562859972026 1.0
Ag     2 -0.1747245978237  0.4106460216976 -0.2562859972026 1.0
END
