TITL 4Ag2Se_TETRA_OPT-200811-100545-b91184 0.0431 231.991929 -4.61183350E+004 0 0 12 (Pcc2) n - 1
REM
REM Run started: Tue, 11 Aug 2020 11:14:37 +0100 in /lustre/scratch/uccabz1/launch_tmp/launcher_2020-08-11-09-05-43-555605
REM CASTEP 20.1 from code version af48c487+ pr-geom-scf-spinfix Tue Jun 2 15:39:59 2020 +0100
REM Functional PBE for solids (2008) Relativity Koelling-Harmon Dispersion off
REM Cut-off 300.0000 eV Grid scale 1.7500 Gmax 15.5288 1/A FBSC none
REM MP grid 3 3 3 Offset 0.000 0.000 0.000 No. kpts 8 Spacing 0.07
REM Total runtime: 4950.59 s
REM Overall efficiency: 91.5455 %
REM
REM 4Ag2Se_TETRA_OPT.cell (db6eaae92e6a5f18c152ebab86a92a61)
REM
REM compiler GCC version 4.9.2
REM options -cpp -iprefix /lustre/shared/ucl/apps/gcc/4.9.2/bin/../lib/gcc/x86_64-unknown-linux-gnu/4.9.2/ -mtune=corei7 -march=x86-64 -g -Og
REM COMMAND_LINE
REM seed -1401916410 1580807752 -349715168 -858060296 1230534683 -1875459840 1735412293 1898608424 1226677983 392707288 1746449312 -320681881
REM
REM Se 3|2.1|7|7|9|40:41:32(qc=5)
REM Ag 3|2.2|7|7|9|40U:50:41:42(qc=5)
REM 
CELL 1.54180    5.16205    6.68266    6.72514   90.00000   90.00000   90.00000
LATT -1
SFAC Se Ag 
Se     1 -0.3092469199221  0.4074028261960 -0.2076126507368 1.0
Se     1  0.3092469199221  0.4074028261960  0.2076126507368 1.0
Se     1  0.3092469199221 -0.0925971738040 -0.2076126507368 1.0
Se     1 -0.3092469199221 -0.0925971738040  0.2076126507368 1.0
Ag     2 -0.1714747571970  0.2832386324013  0.1695797129963 1.0
Ag     2  0.1714747571970  0.2832386324013 -0.1695797129963 1.0
Ag     2  0.1714747571970 -0.2167613675987  0.1695797129963 1.0
Ag     2 -0.1714747571970 -0.2167613675987 -0.1695797129963 1.0
Ag     2 -0.5000000000000  0.1852578051348 -0.5000000000000 1.0
Ag     2  0.5000000000000 -0.3147421948652 -0.5000000000000 1.0
Ag     2  0.0000000000000  0.0131233776706  0.5000000000000 1.0
Ag     2  0.0000000000000 -0.4868766223294 -0.5000000000000 1.0
END
