TITL 4Ag2SE-200803-154822-0724c4 0.0031 225.270740 -4.61181561E+004 0 0 12 (C2) n - 1
REM
REM Run started: Mon, 03 Aug 2020 17:50:57 +0100 in /lustre/scratch/uccabz1/launch_tmp/launcher_2020-08-03-14-48-20-408743
REM CASTEP 20.1 from code version af48c487+ pr-geom-scf-spinfix Tue Jun 2 15:39:59 2020 +0100
REM Functional PBE for solids (2008) Relativity Koelling-Harmon Dispersion off
REM Cut-off 300.0000 eV Grid scale 1.7500 Gmax 15.5288 1/A FBSC none
REM MP grid 4 3 2 Offset 0.000 0.000 0.000 No. kpts 12 Spacing 0.07
REM Total runtime: 8156.74 s
REM Overall efficiency: 74.4167 %
REM
REM 4Ag2SE.cell (6404a18c6b5dc90313b5c56acf317f23)
REM
REM compiler GCC version 4.9.2
REM options -cpp -iprefix /lustre/shared/ucl/apps/gcc/4.9.2/bin/../lib/gcc/x86_64-unknown-linux-gnu/4.9.2/ -mtune=corei7 -march=x86-64 -g -Og
REM COMMAND_LINE
REM seed -953893101 -601892854 2282116 1303668596 -129876413 -982467056 476458155 -783462516 522957810 780897072 956038798 903764055
REM
REM Se 3|2.1|7|7|9|40:41:32(qc=5)
REM Ag 3|2.2|7|7|9|40U:50:41:42(qc=5)
REM 
CELL 1.54180    4.22087    6.06715    9.58969  108.44156  103.99458   90.00000
LATT -1
SFAC Se Ag 
Se     1 -0.0034372642928  0.4436398825424  0.3415469913689 1.0
Se     1  0.0034372642928  0.1020928911735 -0.3415469913689 1.0
Se     1 -0.3414313523281 -0.2872510855968 -0.1720477066351 1.0
Se     1  0.3414313523281 -0.1152033789617  0.1720477066351 1.0
Ag     2  0.5151294481938  0.3147984391899  0.5228477553556 1.0
Ag     2 -0.5151294481938 -0.2080493161657 -0.5228477553556 1.0
Ag     2 -0.1938115361426 -0.4025811737581  0.1042492275284 1.0
Ag     2  0.1938115361426  0.4931695987135 -0.1042492275284 1.0
Ag     2 -0.3226503435350  0.1586985816426 -0.1153502910247 1.0
Ag     2  0.3226503435350  0.2740488726673  0.1153502910247 1.0
Ag     2  0.0634235308005 -0.3530135301079 -0.3583495487688 1.0
Ag     2 -0.0634235308005  0.0053360186609  0.3583495487688 1.0
END
