TITL 4Ag2SE-200803-155108-d6fed5 -0.0365 243.717890 -4.61182140E+004 0 0 12 (R3m) n - 1
REM
REM Run started: Mon, 03 Aug 2020 16:06:06 +0100 in /lustre/scratch/uccabz1/launch_tmp/launcher_2020-08-03-14-51-07-051047
REM CASTEP 20.1 from code version af48c487+ pr-geom-scf-spinfix Tue Jun 2 15:39:59 2020 +0100
REM Functional PBE for solids (2008) Relativity Koelling-Harmon Dispersion off
REM Cut-off 300.0000 eV Grid scale 1.7500 Gmax 15.5288 1/A FBSC none
REM MP grid 3 3 3 Offset 0.000 0.000 0.000 No. kpts 6 Spacing 0.07
REM Total runtime: 1166.05 s
REM Overall efficiency: 66.6667 %
REM
REM 4Ag2SE.cell (6404a18c6b5dc90313b5c56acf317f23)
REM
REM compiler GCC version 4.9.2
REM options -cpp -iprefix /lustre/shared/ucl/apps/gcc/4.9.2/bin/../lib/gcc/x86_64-unknown-linux-gnu/4.9.2/ -mtune=corei7 -march=x86-64 -g -Og
REM COMMAND_LINE
REM seed 1622863802 1347160135 1642582745 -650967801 -1087799398 821311332 -31564145 994222820 1225350913 1726443293 205331417 137737487
REM
REM Se 3|2.1|7|7|9|40:41:32(qc=5)
REM Ag 3|2.2|7|7|9|40U:50:41:42(qc=5)
REM 
CELL 1.54180    6.24641    6.24641    6.24641   89.84308   89.84308   89.84308
LATT -1
SFAC Se Ag 
Se     1 -0.3032085712428 -0.3032085712428  0.2077795926557 1.0
Se     1 -0.3032085712428  0.2077795926557 -0.3032085712428 1.0
Se     1  0.2077795926557 -0.3032085712428 -0.3032085712428 1.0
Se     1  0.1712469531383  0.1712469531383  0.1712469531383 1.0
Ag     2  0.4378400499902 -0.0414208579303  0.4378400499902 1.0
Ag     2 -0.0414208579303  0.4378400499902  0.4378400499902 1.0
Ag     2  0.4378400499902  0.4378400499902 -0.0414208579303 1.0
Ag     2  0.4554155689827 -0.0595825217996 -0.0595825217996 1.0
Ag     2 -0.0595825217996 -0.0595825217996  0.4554155689827 1.0
Ag     2 -0.0595825217996  0.4554155689827 -0.0595825217996 1.0
Ag     2  0.4228247402952  0.4228247402952  0.4228247402952 1.0
Ag     2 -0.0847519110372 -0.0847519110372 -0.0847519110372 1.0
END
