TITL 4Ag2SE-200803-154820-017a94 0.0449 229.526711 -4.61177064E+004 0 0 12 (P21/m) n - 1
REM
REM Run started: Mon, 03 Aug 2020 16:02:03 +0100 in /lustre/scratch/uccabz1/launch_tmp/launcher_2020-08-03-14-48-18-387346
REM CASTEP 20.1 from code version af48c487+ pr-geom-scf-spinfix Tue Jun 2 15:39:59 2020 +0100
REM Functional PBE for solids (2008) Relativity Koelling-Harmon Dispersion off
REM Cut-off 300.0000 eV Grid scale 1.7500 Gmax 15.5288 1/A FBSC none
REM MP grid 4 3 2 Offset 0.000 0.000 0.000 No. kpts 6 Spacing 0.07
REM Total runtime: 884.19 s
REM Overall efficiency: 63.6667 %
REM
REM 4Ag2SE.cell (6404a18c6b5dc90313b5c56acf317f23)
REM
REM compiler GCC version 4.9.2
REM options -cpp -iprefix /lustre/shared/ucl/apps/gcc/4.9.2/bin/../lib/gcc/x86_64-unknown-linux-gnu/4.9.2/ -mtune=corei7 -march=x86-64 -g -Og
REM COMMAND_LINE
REM seed -286182912 -1234837340 -1635201141 1241079765 1964149055 -1838859148 -1133281789 -282317581 903123714 511716641 1958439395 517843869
REM
REM Se 3|2.1|7|7|9|40:41:32(qc=5)
REM Ag 3|2.2|7|7|9|40U:50:41:42(qc=5)
REM 
CELL 1.54180    3.82537    6.26968    9.71653   99.96085   90.00000   90.00000
LATT -1
SFAC Se Ag 
Se     1 -0.2500000000000 -0.2205229834894 -0.4319388379427 1.0
Se     1  0.2500000000000 -0.2794770165106 -0.0680611620573 1.0
Se     1  0.2500000000000  0.2205229834894  0.4319388379427 1.0
Se     1 -0.2500000000000  0.2794770165106  0.0680611620573 1.0
Ag     2 -0.2500000000000 -0.2848429198607  0.1345026889137 1.0
Ag     2  0.2500000000000 -0.2151570801393  0.3654973110863 1.0
Ag     2  0.2500000000000  0.2848429198607 -0.1345026889137 1.0
Ag     2 -0.2500000000000  0.2151570801393 -0.3654973110863 1.0
Ag     2 -0.2500000000000 -0.0473255534498 -0.1619505401549 1.0
Ag     2  0.2500000000000 -0.4526744465502 -0.3380494598451 1.0
Ag     2  0.2500000000000  0.0473255534498  0.1619505401549 1.0
Ag     2 -0.2500000000000  0.4526744465502  0.3380494598451 1.0
END
