TITL 4Ag2Se_TETRA_OPT-200811-095801-5da0a0 0.0306 227.799963 -4.61184399E+004 0 0 12 (P1) n - 1
REM
REM Run started: Tue, 11 Aug 2020 12:35:29 +0100 in /lustre/scratch/uccabz1/launch_tmp/launcher_2020-08-11-08-58-00-066992
REM CASTEP 20.1 from code version af48c487+ pr-geom-scf-spinfix Tue Jun 2 15:39:59 2020 +0100
REM Functional PBE for solids (2008) Relativity Koelling-Harmon Dispersion off
REM Cut-off 300.0000 eV Grid scale 1.7500 Gmax 15.5288 1/A FBSC none
REM MP grid 4 3 3 Offset 0.000 0.000 0.000 No. kpts 18 Spacing 0.07
REM Total runtime: 10438 s
REM Overall efficiency: 95.25 %
REM
REM 4Ag2Se_TETRA_OPT.cell (db6eaae92e6a5f18c152ebab86a92a61)
REM
REM compiler GCC version 4.9.2
REM options -cpp -iprefix /lustre/shared/ucl/apps/gcc/4.9.2/bin/../lib/gcc/x86_64-unknown-linux-gnu/4.9.2/ -mtune=corei7 -march=x86-64 -g -Og
REM COMMAND_LINE
REM seed -1766249083 1196114379 733407926 1615956787 -1178968126 -1781368163 1606072990 -795181321 1468370702 2019594646 -1082940239 421385009
REM
REM Se 3|2.1|7|7|9|40:41:32(qc=5)
REM Ag 3|2.2|7|7|9|40U:50:41:42(qc=5)
REM 
CELL 1.54180    4.67100    7.03116    7.12176   94.85164   94.92063  100.66617
LATT -1
SFAC Se Ag 
Se     1 -0.2901260989213 -0.3677631983996 -0.0919476362875 1.0
Se     1  0.1833629306755  0.1590084186468 -0.2660565532013 1.0
Se     1 -0.3906602574479  0.0910831445305  0.2586932200017 1.0
Se     1  0.2995642271327 -0.3393322524623  0.3998357908756 1.0
Ag     2  0.3592508367208 -0.1649591800416 -0.2378824479271 1.0
Ag     2  0.1951615278294  0.2684282265988  0.3714311852265 1.0
Ag     2 -0.1423165847781 -0.1416133249225 -0.5021159256809 1.0
Ag     2 -0.0754695298292  0.4750896276323 -0.3665917086716 1.0
Ag     2 -0.2699495401847  0.4776491338392  0.2501230611115 1.0
Ag     2 -0.2694256165350  0.1819139644048 -0.0853859739184 1.0
Ag     2  0.0748314802889 -0.0790322758986  0.1061127281434 1.0
Ag     2  0.2012853250488 -0.5138017839279  0.0240273603281 1.0
END
