TITL 4Ag2SE-200803-155057-6806c6 0.0564 218.959540 -4.61177032E+004 0 0 12 (C2/m) n - 1
REM
REM Run started: Mon, 03 Aug 2020 17:21:23 +0100 in /lustre/scratch/uccabz1/launch_tmp/launcher_2020-08-03-14-50-55-937976
REM CASTEP 20.1 from code version af48c487+ pr-geom-scf-spinfix Tue Jun 2 15:39:59 2020 +0100
REM Functional PBE for solids (2008) Relativity Koelling-Harmon Dispersion off
REM Cut-off 300.0000 eV Grid scale 1.7500 Gmax 15.5288 1/A FBSC none
REM MP grid 3 3 2 Offset 0.000 0.000 0.000 No. kpts 8 Spacing 0.07
REM Total runtime: 5638.57 s
REM Overall efficiency: 93.3636 %
REM
REM 4Ag2SE.cell (6404a18c6b5dc90313b5c56acf317f23)
REM
REM compiler GCC version 4.9.2
REM options -cpp -iprefix /lustre/shared/ucl/apps/gcc/4.9.2/bin/../lib/gcc/x86_64-unknown-linux-gnu/4.9.2/ -mtune=corei7 -march=x86-64 -g -Og
REM COMMAND_LINE
REM seed 1524261072 -1471244057 -899261456 -56681789 -328587743 -1035467552 361628439 -1962316765 1795415518 1188510144 -1601169610 408655002
REM
REM Se 3|2.1|7|7|9|40:41:32(qc=5)
REM Ag 3|2.2|7|7|9|40U:50:41:42(qc=5)
REM 
CELL 1.54180    5.17779    5.61587    8.06020   69.61231   91.62786   94.67733
LATT -1
SFAC Se Ag 
Se     1  0.2918388785256 -0.0666739436254 -0.4768762084082 1.0
Se     1 -0.2918388785256  0.5435501520337 -0.4768762084082 1.0
Se     1 -0.2904319429562 -0.1461428964849 -0.0970943905847 1.0
Se     1  0.2904319429562  0.2432372870696 -0.0970943905847 1.0
Ag     2 -0.2011251340675  0.3739078526849 -0.1185000717268 1.0
Ag     2  0.2011251340675 -0.2554077809581 -0.1185000717268 1.0
Ag     2 -0.2401984760928 -0.5065877155780  0.2126171016992 1.0
Ag     2  0.2401984760928  0.2939706138788  0.2126171016992 1.0
Ag     2  0.2005196324294  0.4167451884982 -0.4624413664840 1.0
Ag     2 -0.2005196324294  0.0456961779858 -0.4624413664840 1.0
Ag     2 -0.2452706395599 -0.0059756241089  0.2093465355045 1.0
Ag     2  0.2452706395599 -0.2033709113956  0.2093465355045 1.0
END
