TITL 4Ag2SE-200803-155103-ea865e 0.0152 230.859694 -4.61182780E+004 0 0 12 (Cc) n - 1
REM
REM Run started: Mon, 03 Aug 2020 17:01:49 +0100 in /lustre/scratch/uccabz1/launch_tmp/launcher_2020-08-03-14-51-01-659298
REM CASTEP 20.1 from code version af48c487+ pr-geom-scf-spinfix Tue Jun 2 15:39:59 2020 +0100
REM Functional PBE for solids (2008) Relativity Koelling-Harmon Dispersion off
REM Cut-off 300.0000 eV Grid scale 1.7500 Gmax 15.5288 1/A FBSC none
REM MP grid 3 3 3 Offset 0.000 0.000 0.000 No. kpts 10 Spacing 0.07
REM Total runtime: 4324.48 s
REM Overall efficiency: 91.4 %
REM
REM 4Ag2SE.cell (6404a18c6b5dc90313b5c56acf317f23)
REM
REM compiler GCC version 4.9.2
REM options -cpp -iprefix /lustre/shared/ucl/apps/gcc/4.9.2/bin/../lib/gcc/x86_64-unknown-linux-gnu/4.9.2/ -mtune=corei7 -march=x86-64 -g -Og
REM COMMAND_LINE
REM seed 1420575045 -2141169284 -1659585827 1514004270 1252014848 1181270559 1226301206 1159875713 -971715503 -1217108452 2099464269 52186855
REM
REM Se 3|2.1|7|7|9|40:41:32(qc=5)
REM Ag 3|2.2|7|7|9|40U:50:41:42(qc=5)
REM 
CELL 1.54180    6.39451    6.39451    7.10806  114.34921  100.51483  109.80632
LATT -1
SFAC Se Ag 
Se     1  0.2852987003461  0.3003910762800 -0.4420629538011 1.0
Se     1 -0.2424540300811  0.2726383458528  0.0579370461989 1.0
Se     1  0.4079436772022 -0.3261978215907  0.2302115277004 1.0
Se     1  0.0564093492911 -0.1777321495018 -0.2697884722996 1.0
Ag     2 -0.3719849515209  0.4769001178681  0.4098735815387 1.0
Ag     2  0.4329734636706 -0.2181414669404 -0.0901264184613 1.0
Ag     2  0.0391785814347  0.2819071646462 -0.1800828953860 1.0
Ag     2  0.0380099399677 -0.2192614768208  0.3199171046140 1.0
Ag     2  0.5103626051874  0.0114315700521 -0.3637685334255 1.0
Ag     2  0.1247998965224  0.1258688613871  0.1362314665745 1.0
Ag     2 -0.2297676575172 -0.4312666021234 -0.1332758266265 1.0
Ag     2 -0.2020092245031  0.0964918308906  0.3667241733735 1.0
END
