TITL 4Ag2SE-200803-154820-efcf62 0.0150 240.279297 -4.61183367E+004 0 0 12 (R3) n - 1
REM
REM Run started: Mon, 03 Aug 2020 16:25:16 +0100 in /lustre/scratch/uccabz1/launch_tmp/launcher_2020-08-03-14-48-18-829432
REM CASTEP 20.1 from code version af48c487+ pr-geom-scf-spinfix Tue Jun 2 15:39:59 2020 +0100
REM Functional PBE for solids (2008) Relativity Koelling-Harmon Dispersion off
REM Cut-off 300.0000 eV Grid scale 1.7500 Gmax 15.5288 1/A FBSC none
REM MP grid 3 3 3 Offset 0.000 0.000 0.000 No. kpts 6 Spacing 0.07
REM Total runtime: 2257.51 s
REM Overall efficiency: 65 %
REM
REM 4Ag2SE.cell (6404a18c6b5dc90313b5c56acf317f23)
REM
REM compiler GCC version 4.9.2
REM options -cpp -iprefix /lustre/shared/ucl/apps/gcc/4.9.2/bin/../lib/gcc/x86_64-unknown-linux-gnu/4.9.2/ -mtune=corei7 -march=x86-64 -g -Og
REM COMMAND_LINE
REM seed 385980368 -1696546377 438848400 -897124289 -685685795 1980874982 -300105561 1641805673 -1797793180 326413867 1556084718 -1715577476
REM
REM Se 3|2.1|7|7|9|40:41:32(qc=5)
REM Ag 3|2.2|7|7|9|40U:50:41:42(qc=5)
REM 
CELL 1.54180    6.21741    6.21741    6.21741   89.24248   89.24248   89.24248
LATT -1
SFAC Se Ag 
Se     1  0.5083921655624  0.0204365138481 -0.0549641881326 1.0
Se     1  0.0204365138481 -0.0549641881326  0.5083921655624 1.0
Se     1 -0.0549641881326  0.5083921655624  0.0204365138481 1.0
Se     1  0.4221988832803  0.4221988832803  0.4221988832803 1.0
Ag     2 -0.2929727603881 -0.2793733051766  0.3724041364811 1.0
Ag     2 -0.2793733051766  0.3724041364811 -0.2929727603881 1.0
Ag     2  0.3724041364811 -0.2929727603881 -0.2793733051766 1.0
Ag     2  0.2841903542406 -0.2597257249504  0.1737791592881 1.0
Ag     2 -0.2597257249504  0.1737791592881  0.2841903542406 1.0
Ag     2  0.1737791592881  0.2841903542406 -0.2597257249504 1.0
Ag     2  0.1793494225887  0.1793494225887  0.1793494225887 1.0
Ag     2 -0.0759348566416 -0.0759348566416 -0.0759348566416 1.0
END
