TITL 4Ag2SE-200803-160703-74af21 0.0583 236.261300 -4.61182065E+004 0 0 12 (P21) n - 1
REM
REM Run started: Mon, 03 Aug 2020 16:28:44 +0100 in /lustre/scratch/uccabz1/launch_tmp/launcher_2020-08-03-15-07-01-422848
REM CASTEP 20.1 from code version af48c487+ pr-geom-scf-spinfix Tue Jun 2 15:39:59 2020 +0100
REM Functional PBE for solids (2008) Relativity Koelling-Harmon Dispersion off
REM Cut-off 300.0000 eV Grid scale 1.7500 Gmax 15.5288 1/A FBSC none
REM MP grid 4 3 2 Offset 0.000 0.000 0.000 No. kpts 6 Spacing 0.07
REM Total runtime: 1358.65 s
REM Overall efficiency: 70.2857 %
REM
REM 4Ag2SE.cell (6404a18c6b5dc90313b5c56acf317f23)
REM
REM compiler GCC version 4.9.2
REM options -cpp -iprefix /lustre/shared/ucl/apps/gcc/4.9.2/bin/../lib/gcc/x86_64-unknown-linux-gnu/4.9.2/ -mtune=corei7 -march=x86-64 -g -Og
REM COMMAND_LINE
REM seed 1122260784 -735222728 -1461704964 808360488 -502253212 2038235212 -1771370125 999958145 1539407811 1500211791 275012358 494427606
REM
REM Se 3|2.1|7|7|9|40:41:32(qc=5)
REM Ag 3|2.2|7|7|9|40U:50:41:42(qc=5)
REM 
CELL 1.54180    4.57385    5.49201    9.50594   90.00000   90.00000   98.33860
LATT -1
SFAC Se Ag 
Se     1  0.1022385801832 -0.0008928721202 -0.3247228740330 1.0
Se     1 -0.1022385801832  0.0008928721202  0.1752771259670 1.0
Se     1 -0.4819686306449 -0.4336473696264  0.4675019812437 1.0
Se     1  0.4819686306449  0.4336473696264 -0.0324980187563 1.0
Ag     2  0.4497813108767  0.2642178001415  0.2379185358714 1.0
Ag     2 -0.4497813108767 -0.2642178001415 -0.2620814641286 1.0
Ag     2 -0.0298143263353  0.3323904715421  0.3945171142392 1.0
Ag     2  0.0298143263353 -0.3323904715421 -0.1054828857608 1.0
Ag     2  0.0842960193623 -0.1551240692566  0.4143037418176 1.0
Ag     2 -0.0842960193623  0.1551240692566 -0.0856962581824 1.0
Ag     2  0.3439247534548 -0.2527750529460  0.1543944008611 1.0
Ag     2 -0.3439247534548  0.2527750529460 -0.3456055991389 1.0
END
