TITL 4Ag2Se_TETRA-200803-165049-18271e 0.0034 231.043386 -4.61184785E+004 0 0 12 (P21) n - 1
REM
REM Run started: Mon, 03 Aug 2020 17:29:39 +0100 in /lustre/scratch/uccabz1/launch_tmp/launcher_2020-08-03-15-50-47-304127
REM CASTEP 20.1 from code version af48c487+ pr-geom-scf-spinfix Tue Jun 2 15:39:59 2020 +0100
REM Functional PBE for solids (2008) Relativity Koelling-Harmon Dispersion off
REM Cut-off 300.0000 eV Grid scale 1.7500 Gmax 15.5288 1/A FBSC none
REM MP grid 3 3 3 Offset 0.000 0.000 0.000 No. kpts 10 Spacing 0.07
REM Total runtime: 2593.7 s
REM Overall efficiency: 89.75 %
REM
REM 4Ag2Se_TETRA.cell (4020362940262d3df87d4014b41eb05e)
REM
REM compiler GCC version 4.9.2
REM options -cpp -iprefix /lustre/shared/ucl/apps/gcc/4.9.2/bin/../lib/gcc/x86_64-unknown-linux-gnu/4.9.2/ -mtune=corei7 -march=x86-64 -g -Og
REM COMMAND_LINE
REM seed 1004351993 945353824 -238718376 -312859688 1132096500 -1495781921 1973469042 -1513248992 149436175 379779092 381667600 21381551
REM
REM Se 3|2.1|7|7|9|40:41:32(qc=5)
REM Ag 3|2.2|7|7|9|40U:50:41:42(qc=5)
REM 
CELL 1.54180    6.15640    6.15837    6.09412   90.39238   90.00000   90.00000
LATT -1
SFAC Se Ag 
Se     1 -0.4669048385389 -0.1950040712551 -0.3940664993351 1.0
Se     1  0.0330951614611  0.1950040712551  0.3940664993351 1.0
Se     1  0.0422115572635 -0.3231668192959  0.0260002947609 1.0
Se     1 -0.4577884427365  0.3231668192959 -0.0260002947609 1.0
Ag     2  0.2787000221413 -0.4692497338999  0.4007664143245 1.0
Ag     2 -0.2212999778587  0.4692497338999 -0.4007664143245 1.0
Ag     2  0.1528105549675  0.3311020255946 -0.1926426755358 1.0
Ag     2 -0.3471894450325 -0.3311020255946  0.1926426755358 1.0
Ag     2  0.0393390058914 -0.1438393446685 -0.3689861413064 1.0
Ag     2 -0.4606609941086  0.1438393446685  0.3689861413064 1.0
Ag     2  0.3479458982752 -0.0500423288665 -0.0112134497669 1.0
Ag     2 -0.1520541017248  0.0500423288665  0.0112134497669 1.0
END
