TITL 4Ag2Se_TETRA_OPT-200811-115010-c09b14 -0.0427 223.142451 -4.61185321E+004 0 0 12 (P1) n - 1
REM
REM Run started: Tue, 11 Aug 2020 14:20:04 +0100 in /lustre/scratch/uccabz1/launch_tmp/launcher_2020-08-11-10-50-07-746485
REM CASTEP 20.1 from code version af48c487+ pr-geom-scf-spinfix Tue Jun 2 15:39:59 2020 +0100
REM Functional PBE for solids (2008) Relativity Koelling-Harmon Dispersion off
REM Cut-off 300.0000 eV Grid scale 1.7500 Gmax 15.5288 1/A FBSC none
REM MP grid 3 3 3 Offset 0.000 0.000 0.000 No. kpts 14 Spacing 0.07
REM Total runtime: 10015 s
REM Overall efficiency: 95.3333 %
REM
REM 4Ag2Se_TETRA_OPT.cell (db6eaae92e6a5f18c152ebab86a92a61)
REM
REM compiler GCC version 4.9.2
REM options -cpp -iprefix /lustre/shared/ucl/apps/gcc/4.9.2/bin/../lib/gcc/x86_64-unknown-linux-gnu/4.9.2/ -mtune=corei7 -march=x86-64 -g -Og
REM COMMAND_LINE
REM seed -470336775 1478421617 1737801509 1074407439 1743672708 898668919 180434908 1294257461 46403742 1030706562 572334391 -229064286
REM
REM Se 3|2.1|7|7|9|40:41:32(qc=5)
REM Ag 3|2.2|7|7|9|40U:50:41:42(qc=5)
REM 
CELL 1.54180    5.21848    6.61316    6.54507   98.85554   89.00033   90.55274
LATT -1
SFAC Se Ag 
Se     1  0.2428455563771 -0.1091594333352 -0.4221899333021 1.0
Se     1 -0.1305313649720  0.4338358012213 -0.2846223748360 1.0
Se     1 -0.2571644957734  0.0211731713343  0.2351886336931 1.0
Se     1  0.3666105332855 -0.5263289790554  0.1318147088340 1.0
Ag     2  0.2487830815355  0.1039310704574  0.2571158883239 1.0
Ag     2  0.4854437537074 -0.2087762343667 -0.0777124064113 1.0
Ag     2 -0.2512559411379 -0.1959723202485 -0.4496366059272 1.0
Ag     2 -0.1404536412244  0.4230043058137  0.3000233159947 1.0
Ag     2 -0.5157271087245  0.1918037981236 -0.1948904072878 1.0
Ag     2  0.3701121567861  0.4783650888539  0.5482835592694 1.0
Ag     2 -0.0197664654343  0.0990725902231 -0.1093197120212 1.0
Ag     2 -0.0124990644252 -0.2918545590215  0.0393321336705 1.0
END
