TITL 4Ag2SE-200803-155116-6bc9ce -0.0150 230.405288 -4.61183649E+004 0 0 12 (P21/c) n - 1
REM
REM Run started: Mon, 03 Aug 2020 17:06:31 +0100 in /lustre/scratch/uccabz1/launch_tmp/launcher_2020-08-03-14-51-14-646447
REM CASTEP 20.1 from code version af48c487+ pr-geom-scf-spinfix Tue Jun 2 15:39:59 2020 +0100
REM Functional PBE for solids (2008) Relativity Koelling-Harmon Dispersion off
REM Cut-off 300.0000 eV Grid scale 1.7500 Gmax 15.5288 1/A FBSC none
REM MP grid 4 4 2 Offset 0.000 0.000 0.000 No. kpts 8 Spacing 0.07
REM Total runtime: 4622.19 s
REM Overall efficiency: 93.1111 %
REM
REM 4Ag2SE.cell (6404a18c6b5dc90313b5c56acf317f23)
REM
REM compiler GCC version 4.9.2
REM options -cpp -iprefix /lustre/shared/ucl/apps/gcc/4.9.2/bin/../lib/gcc/x86_64-unknown-linux-gnu/4.9.2/ -mtune=corei7 -march=x86-64 -g -Og
REM COMMAND_LINE
REM seed -1518916364 -454997276 -941220958 459917710 -1239341066 -624338356 1082043747 3122356 -72629417 -1805189403 1193565045 -908411889
REM
REM Se 3|2.1|7|7|9|40:41:32(qc=5)
REM Ag 3|2.2|7|7|9|40U:50:41:42(qc=5)
REM 
CELL 1.54180    4.38099    4.54159   12.85945   90.00000   90.00000  115.77441
LATT -1
SFAC Se Ag 
Se     1 -0.5319510696013 -0.2264751345869 -0.1276766304630 1.0
Se     1 -0.0319510696013  0.2735248654131  0.1276766304630 1.0
Se     1  0.2258106848152  0.3548033965517 -0.3714025424680 1.0
Se     1 -0.2741893151848 -0.1451966034483  0.3714025424680 1.0
Ag     2 -0.4280726840933  0.0034048284801 -0.3264700229289 1.0
Ag     2 -0.9280726840933 -0.4965951715199  0.3264700229289 1.0
Ag     2  0.4199925889577  0.1974744647289  0.4429693780935 1.0
Ag     2 -0.0800074110423 -0.3025255352711 -0.4429693780935 1.0
Ag     2  0.2759441135545 -0.0688765921873  0.0575936202615 1.0
Ag     2 -0.2240558864455 -0.5688765921873 -0.0575936202615 1.0
Ag     2 -0.3774807336329 -0.3778325629865  0.1731783209636 1.0
Ag     2  0.1225192663671  0.1221674370135 -0.1731783209636 1.0
END
