TITL 4Ag2Se_TETRA_OPT-200811-101250-a69000 0.0843 218.338531 -4.61185915E+004 0 0 12 (P-1) n - 1
REM
REM Run started: Tue, 11 Aug 2020 13:13:25 +0100 in /lustre/scratch/uccabz1/launch_tmp/launcher_2020-08-11-09-12-48-816690
REM CASTEP 20.1 from code version af48c487+ pr-geom-scf-spinfix Tue Jun 2 15:39:59 2020 +0100
REM Functional PBE for solids (2008) Relativity Koelling-Harmon Dispersion off
REM Cut-off 300.0000 eV Grid scale 1.7500 Gmax 15.5288 1/A FBSC none
REM MP grid 3 3 3 Offset 0.000 0.000 0.000 No. kpts 14 Spacing 0.07
REM Total runtime: 11048.2 s
REM Overall efficiency: 95.3846 %
REM
REM 4Ag2Se_TETRA_OPT.cell (db6eaae92e6a5f18c152ebab86a92a61)
REM
REM compiler GCC version 4.9.2
REM options -cpp -iprefix /lustre/shared/ucl/apps/gcc/4.9.2/bin/../lib/gcc/x86_64-unknown-linux-gnu/4.9.2/ -mtune=corei7 -march=x86-64 -g -Og
REM COMMAND_LINE
REM seed 1271304115 778567799 -593442625 1161466810 -1670483286 -937587578 -2090549202 -1214360820 1122725516 955756957 1804651716 1365996082
REM
REM Se 3|2.1|7|7|9|40:41:32(qc=5)
REM Ag 3|2.2|7|7|9|40U:50:41:42(qc=5)
REM 
CELL 1.54180    4.79435    6.94251    6.64071   81.45714   91.95381   88.43783
LATT -1
SFAC Se Ag 
Se     1  0.4377221785529 -0.2927189947607 -0.2432274535364 1.0
Se     1 -0.0622841966755 -0.1128799622006  0.1937855052310 1.0
Se     1  0.4388478038163  0.3053593376471  0.1749073346972 1.0
Se     1 -0.0626198975695  0.2897486812917 -0.2243743426037 1.0
Ag     2 -0.0471648266360  0.2136149129500  0.3844078495183 1.0
Ag     2 -0.0562551118860 -0.1029208469972 -0.2486371685580 1.0
Ag     2 -0.0900718238164 -0.3954015257586  0.4895615185701 1.0
Ag     2  0.4318500762113 -0.3026731989848  0.2012540203487 1.0
Ag     2  0.4260614751085  0.3803737080424 -0.4331784545437 1.0
Ag     2 -0.5328705586937 -0.0100240734871  0.4617022707505 1.0
Ag     2 -0.0719797969529  0.5323857382010  0.0537716526090 1.0
Ag     2  0.4467655785410  0.0615789240568 -0.1018422324831 1.0
END
