TITL 4Ag2Se_TETRA_OPT-200811-102633-6e9a15 0.0324 231.601029 -4.61180688E+004 0 0 12 (P1) n - 1
REM
REM Run started: Tue, 11 Aug 2020 12:19:06 +0100 in /lustre/scratch/uccabz1/launch_tmp/launcher_2020-08-11-09-26-31-752139
REM CASTEP 20.1 from code version af48c487+ pr-geom-scf-spinfix Tue Jun 2 15:39:59 2020 +0100
REM Functional PBE for solids (2008) Relativity Koelling-Harmon Dispersion off
REM Cut-off 300.0000 eV Grid scale 1.7500 Gmax 15.5288 1/A FBSC none
REM MP grid 4 2 3 Offset 0.000 0.000 0.000 No. kpts 12 Spacing 0.07
REM Total runtime: 6862.28 s
REM Overall efficiency: 82.6364 %
REM
REM 4Ag2Se_TETRA_OPT.cell (db6eaae92e6a5f18c152ebab86a92a61)
REM
REM compiler GCC version 4.9.2
REM options -cpp -iprefix /lustre/shared/ucl/apps/gcc/4.9.2/bin/../lib/gcc/x86_64-unknown-linux-gnu/4.9.2/ -mtune=corei7 -march=x86-64 -g -Og
REM COMMAND_LINE
REM seed 1952346016 1912856303 834559330 -1017451238 1087290203 1054002897 -1530525850 -660988050 -673067667 -1321794767 1836663194 921176427
REM
REM Se 3|2.1|7|7|9|40:41:32(qc=5)
REM Ag 3|2.2|7|7|9|40U:50:41:42(qc=5)
REM 
CELL 1.54180    4.50187    7.32890    7.10871   90.87779   92.68442   81.33147
LATT -1
SFAC Se Ag 
Se     1  0.3500293217656  0.0467316940192  0.3166637578874 1.0
Se     1  0.0293297373889  0.0960257666037 -0.2325679309878 1.0
Se     1 -0.0293203156949 -0.5230732009870  0.4321986719132 1.0
Se     1  0.4878903843432  0.4658548912733 -0.0689099691353 1.0
Ag     2 -0.1584793135004 -0.3471479068679 -0.2568600340031 1.0
Ag     2  0.4949480188765  0.2760572285060 -0.4029339863296 1.0
Ag     2  0.0591215880572  0.3168107627193  0.0860620685323 1.0
Ag     2 -0.3308049761268  0.0596789924737  0.0284472849095 1.0
Ag     2 -0.1370293109365 -0.3034654537200  0.1361655662234 1.0
Ag     2 -0.1233049345656 -0.0834444866627  0.4639671887862 1.0
Ag     2  0.3029122785895 -0.1941859501411 -0.0894412344900 1.0
Ag     2  0.4096184218034 -0.3239348372165  0.4042847166938 1.0
END
