TITL 4Ag2SE-200803-155103-eb592e -0.0129 223.680199 -4.61183583E+004 0 0 12 (C2) n - 1
REM
REM Run started: Mon, 03 Aug 2020 17:31:07 +0100 in /lustre/scratch/uccabz1/launch_tmp/launcher_2020-08-03-14-51-01-518992
REM CASTEP 20.1 from code version af48c487+ pr-geom-scf-spinfix Tue Jun 2 15:39:59 2020 +0100
REM Functional PBE for solids (2008) Relativity Koelling-Harmon Dispersion off
REM Cut-off 300.0000 eV Grid scale 1.7500 Gmax 15.5288 1/A FBSC none
REM MP grid 3 3 2 Offset 0.000 0.000 0.000 No. kpts 6 Spacing 0.07
REM Total runtime: 6113.98 s
REM Overall efficiency: 77.6923 %
REM
REM 4Ag2SE.cell (6404a18c6b5dc90313b5c56acf317f23)
REM
REM compiler GCC version 4.9.2
REM options -cpp -iprefix /lustre/shared/ucl/apps/gcc/4.9.2/bin/../lib/gcc/x86_64-unknown-linux-gnu/4.9.2/ -mtune=corei7 -march=x86-64 -g -Og
REM COMMAND_LINE
REM seed 1238611202 -1062654090 -1618130269 403541004 -1526566351 1868367677 812943228 2140281832 -736641161 1943145110 -1401638117 1864799187
REM
REM Se 3|2.1|7|7|9|40:41:32(qc=5)
REM Ag 3|2.2|7|7|9|40U:50:41:42(qc=5)
REM 
CELL 1.54180    6.15431    6.15431    7.82439   71.52612   71.52612   53.85185
LATT -1
SFAC Se Ag 
Se     1 -0.5123751771287  0.1419633201577  0.0881662699313 1.0
Se     1 -0.1419633201577 -0.4876248228713 -0.0881662699313 1.0
Se     1  0.3015482333876 -0.0451825337390 -0.4398959626305 1.0
Se     1  0.0451825337390 -0.3015482333876  0.4398959626305 1.0
Ag     2  0.8014231153077  0.4480039125324 -0.5114489802813 1.0
Ag     2 -0.4480039125324  0.1985768846923  0.5114489802813 1.0
Ag     2  0.3599022392389  0.0033489193039 -0.1397722147692 1.0
Ag     2 -0.0033489193039 -0.3599022392389  0.1397722147692 1.0
Ag     2 -0.0441467380775  0.1237898077122  0.1899175380255 1.0
Ag     2 -0.1237898077122  0.0441467380775 -0.1899175380255 1.0
Ag     2 -0.5229994004733 -0.3637735537124  0.2037366451312 1.0
Ag     2  0.3637735537124 -0.4770005995267 -0.2037366451312 1.0
END
