TITL 4Ag2Se_TETRA_OPT-200811-110407-664acc 0.0085 225.993035 -4.61184839E+004 0 0 12 (P1) n - 1
REM
REM Run started: Tue, 11 Aug 2020 12:43:48 +0100 in /lustre/scratch/uccabz1/launch_tmp/launcher_2020-08-11-10-04-05-524275
REM CASTEP 20.1 from code version af48c487+ pr-geom-scf-spinfix Tue Jun 2 15:39:59 2020 +0100
REM Functional PBE for solids (2008) Relativity Koelling-Harmon Dispersion off
REM Cut-off 300.0000 eV Grid scale 1.7500 Gmax 15.5288 1/A FBSC none
REM MP grid 3 3 3 Offset 0.000 0.000 0.000 No. kpts 14 Spacing 0.07
REM Total runtime: 6648.2 s
REM Overall efficiency: 94.8889 %
REM
REM 4Ag2Se_TETRA_OPT.cell (db6eaae92e6a5f18c152ebab86a92a61)
REM
REM compiler GCC version 4.9.2
REM options -cpp -iprefix /lustre/shared/ucl/apps/gcc/4.9.2/bin/../lib/gcc/x86_64-unknown-linux-gnu/4.9.2/ -mtune=corei7 -march=x86-64 -g -Og
REM COMMAND_LINE
REM seed 2021074733 1755622794 2134476952 442855857 -1069168038 -280605726 544661820 -560349097 -1299507255 -1677788029 -944447563 1785776723
REM
REM Se 3|2.1|7|7|9|40:41:32(qc=5)
REM Ag 3|2.2|7|7|9|40U:50:41:42(qc=5)
REM 
CELL 1.54180    5.47530    6.51844    6.36077   87.10599   94.58911   90.73666
LATT -1
SFAC Se Ag 
Se     1 -0.1365938442616  0.0600026295774 -0.2852308405962 1.0
Se     1 -0.4618202947519 -0.4176429849070 -0.2958808968747 1.0
Se     1 -0.0966696300273 -0.4485252130177  0.3015121533533 1.0
Se     1  0.3214652574659 -0.0296271418392  0.2359784569864 1.0
Ag     2  0.0594918655403  0.2829986381586  0.0662660608623 1.0
Ag     2  0.4333053374221 -0.3935954878801  0.1026259748899 1.0
Ag     2  0.3117340189986 -0.0692551094082 -0.3332123173793 1.0
Ag     2 -0.4562374376305  0.2150654850624 -0.0428664789396 1.0
Ag     2  0.1481493302380  0.3731334869578 -0.3519271511770 1.0
Ag     2 -0.0297884997705 -0.3021620189561 -0.0938274592855 1.0
Ag     2 -0.4479466173445  0.2867554735802  0.4137065585595 1.0
Ag     2 -0.1747596858784 -0.0489361573282  0.2848992396007 1.0
END
