TITL 4Ag2Se_TETRA_OPT-200811-114516-0e8233 -0.0047 226.597974 -4.61186864E+004 0 0 12 (P1) n - 1
REM
REM Run started: Tue, 11 Aug 2020 13:10:36 +0100 in /lustre/scratch/uccabz1/launch_tmp/launcher_2020-08-11-10-45-14-541099
REM CASTEP 20.1 from code version af48c487+ pr-geom-scf-spinfix Tue Jun 2 15:39:59 2020 +0100
REM Functional PBE for solids (2008) Relativity Koelling-Harmon Dispersion off
REM Cut-off 300.0000 eV Grid scale 1.7500 Gmax 15.5288 1/A FBSC none
REM MP grid 3 3 3 Offset 0.000 0.000 0.000 No. kpts 14 Spacing 0.07
REM Total runtime: 5155.19 s
REM Overall efficiency: 90.5556 %
REM
REM 4Ag2Se_TETRA_OPT.cell (db6eaae92e6a5f18c152ebab86a92a61)
REM
REM compiler GCC version 4.9.2
REM options -cpp -iprefix /lustre/shared/ucl/apps/gcc/4.9.2/bin/../lib/gcc/x86_64-unknown-linux-gnu/4.9.2/ -mtune=corei7 -march=x86-64 -g -Og
REM COMMAND_LINE
REM seed -401897522 -479032679 -2058973804 -411129058 178272377 -608947390 2103030475 1744180481 -789678648 1394064073 -1947865115 -1554933844
REM
REM Se 3|2.1|7|7|9|40:41:32(qc=5)
REM Ag 3|2.2|7|7|9|40U:50:41:42(qc=5)
REM 
CELL 1.54180    4.88356    6.82208    6.80203   89.26998   90.08646   90.10356
LATT -1
SFAC Se Ag 
Se     1 -0.3457494412866 -0.1492557665212 -0.4624387168335 1.0
Se     1  0.1000635291607  0.3576358761622 -0.3605548960020 1.0
Se     1 -0.3886357759922  0.2645423773547  0.0436801157122 1.0
Se     1  0.1440198266294 -0.2281363573733  0.1492110171546 1.0
Ag     2 -0.4074881672651  0.5162922250623 -0.2528393108451 1.0
Ag     2  0.0993897715573  0.1069464710496 -0.0642515083740 1.0
Ag     2  0.1362267031001  0.3808002390009  0.2449271339515 1.0
Ag     2 -0.3579578911585 -0.3932289169954  0.2364014590719 1.0
Ag     2 -0.3640390691615  0.2417343372739  0.4394240032420 1.0
Ag     2  0.1490124248904  0.0144915411499  0.4517739239864 1.0
Ag     2 -0.4059790896938 -0.1133475150631 -0.0741225674458 1.0
Ag     2  0.0936970792199 -0.2651957111005 -0.2380030536182 1.0
END
