TITL 4Ag2Se_TETRA_OPT-200811-110759-3dbbf9 -0.0478 224.804435 -4.61187166E+004 0 0 12 (P21/c) n - 1
REM
REM Run started: Tue, 11 Aug 2020 11:48:21 +0100 in /lustre/scratch/uccabz1/launch_tmp/launcher_2020-08-11-10-07-55-777545
REM CASTEP 20.1 from code version af48c487+ pr-geom-scf-spinfix Tue Jun 2 15:39:59 2020 +0100
REM Functional PBE for solids (2008) Relativity Koelling-Harmon Dispersion off
REM Cut-off 300.0000 eV Grid scale 1.7500 Gmax 15.5288 1/A FBSC none
REM MP grid 4 2 3 Offset 0.000 0.000 0.000 No. kpts 6 Spacing 0.07
REM Total runtime: 2493.68 s
REM Overall efficiency: 74.1111 %
REM
REM 4Ag2Se_TETRA_OPT.cell (db6eaae92e6a5f18c152ebab86a92a61)
REM
REM compiler GCC version 4.9.2
REM options -cpp -iprefix /lustre/shared/ucl/apps/gcc/4.9.2/bin/../lib/gcc/x86_64-unknown-linux-gnu/4.9.2/ -mtune=corei7 -march=x86-64 -g -Og
REM COMMAND_LINE
REM seed -1236508825 -1100247220 -1494491082 -744679113 -1994718074 -352917454 -1692239880 -777640092 -2111122588 759950211 730095918 -479663090
REM
REM Se 3|2.1|7|7|9|40:41:32(qc=5)
REM Ag 3|2.2|7|7|9|40U:50:41:42(qc=5)
REM 
CELL 1.54180    4.72339    7.44944    6.39338   92.14108   90.00000   90.00000
LATT -1
SFAC Se Ag 
Se     1 -0.4332042546841 -0.3424398509287 -0.1724939511171 1.0
Se     1  0.0667957453159 -0.1575601490713  0.1724939511171 1.0
Se     1  0.4332042546841  0.3424398509287  0.1724939511171 1.0
Se     1 -0.0667957453159  0.1575601490713 -0.1724939511171 1.0
Ag     2 -0.4164151423351  0.0070206565069  0.2415580785103 1.0
Ag     2  0.0835848576649  0.4929793434931 -0.2415580785103 1.0
Ag     2  0.4164151423351 -0.0070206565069 -0.2415580785103 1.0
Ag     2 -0.0835848576649 -0.4929793434931  0.2415580785103 1.0
Ag     2  0.4120299542827 -0.3307538782159  0.4273618430368 1.0
Ag     2 -0.0879700457173 -0.1692461217841 -0.4273618430368 1.0
Ag     2 -0.4120299542827  0.3307538782159 -0.4273618430368 1.0
Ag     2  0.0879700457173  0.1692461217841  0.4273618430368 1.0
END
