TITL 4Ag2SE-200803-161111-66649d -0.0475 225.723808 -4.61184173E+004 0 0 12 (Cc) n - 1
REM
REM Run started: Mon, 03 Aug 2020 16:59:55 +0100 in /lustre/scratch/uccabz1/launch_tmp/launcher_2020-08-03-15-11-09-835761
REM CASTEP 20.1 from code version af48c487+ pr-geom-scf-spinfix Tue Jun 2 15:39:59 2020 +0100
REM Functional PBE for solids (2008) Relativity Koelling-Harmon Dispersion off
REM Cut-off 300.0000 eV Grid scale 1.7500 Gmax 15.5288 1/A FBSC none
REM MP grid 4 3 3 Offset 0.000 0.000 0.000 No. kpts 18 Spacing 0.07
REM Total runtime: 3046.27 s
REM Overall efficiency: 89.7143 %
REM
REM 4Ag2SE.cell (6404a18c6b5dc90313b5c56acf317f23)
REM
REM compiler GCC version 4.9.2
REM options -cpp -iprefix /lustre/shared/ucl/apps/gcc/4.9.2/bin/../lib/gcc/x86_64-unknown-linux-gnu/4.9.2/ -mtune=corei7 -march=x86-64 -g -Og
REM COMMAND_LINE
REM seed -345178481 -1095691792 -993770967 -2072532821 -782225289 -1569124434 -2089773885 -737790752 778726274 17436911 -259993424 -568294124
REM
REM Se 3|2.1|7|7|9|40:41:32(qc=5)
REM Ag 3|2.2|7|7|9|40U:50:41:42(qc=5)
REM 
CELL 1.54180    4.91819    6.83690    7.78844  113.37597  108.40530   90.00000
LATT -1
SFAC Se Ag 
Se     1 -0.2100955958437 -0.0265222449129 -0.0554405660586 1.0
Se     1  0.1546550297850 -0.5265222449129 -0.0554405660586 1.0
Se     1 -0.0527323900611 -0.3577328461979  0.4528465661895 1.0
Se     1 -0.4944210437495  0.1422671538021  0.4528465661895 1.0
Ag     2 -0.2246070283772 -0.2476817845644  0.1508601996837 1.0
Ag     2  0.3754672280609  0.2523182154356  0.1508601996837 1.0
Ag     2  0.3838029878685 -0.2838777626652  0.3452238180725 1.0
Ag     2 -0.0385791697960  0.2161222373348  0.3452238180725 1.0
Ag     2 -0.3988737814519 -0.4292045612666 -0.3456906180329 1.0
Ag     2  0.0531831634190  0.0707954387334 -0.3456906180329 1.0
Ag     2  0.2503721176932 -0.1914044003930 -0.1370758998542 1.0
Ag     2 -0.3874480175474  0.3085955996070 -0.1370758998542 1.0
END
