TITL 4Ag2SE-200803-160703-a7eb56 0.0693 218.202621 -4.61182400E+004 0 0 12 (P21) n - 1
REM
REM Run started: Mon, 03 Aug 2020 16:59:38 +0100 in /lustre/scratch/uccabz1/launch_tmp/launcher_2020-08-03-15-07-01-568768
REM CASTEP 20.1 from code version af48c487+ pr-geom-scf-spinfix Tue Jun 2 15:39:59 2020 +0100
REM Functional PBE for solids (2008) Relativity Koelling-Harmon Dispersion off
REM Cut-off 300.0000 eV Grid scale 1.7500 Gmax 15.5288 1/A FBSC none
REM MP grid 3 3 2 Offset 0.000 0.000 0.000 No. kpts 6 Spacing 0.07
REM Total runtime: 3234.61 s
REM Overall efficiency: 72.9167 %
REM
REM 4Ag2SE.cell (6404a18c6b5dc90313b5c56acf317f23)
REM
REM compiler GCC version 4.9.2
REM options -cpp -iprefix /lustre/shared/ucl/apps/gcc/4.9.2/bin/../lib/gcc/x86_64-unknown-linux-gnu/4.9.2/ -mtune=corei7 -march=x86-64 -g -Og
REM COMMAND_LINE
REM seed -1876919004 957442836 -1390826698 -1430605935 936519133 1293628449 1727196809 1205034564 1307118240 1493412977 1932117480 -168629707
REM
REM Se 3|2.1|7|7|9|40:41:32(qc=5)
REM Ag 3|2.2|7|7|9|40U:50:41:42(qc=5)
REM 
CELL 1.54180    5.70924    5.27154    7.31529   90.00000   97.65471   90.00000
LATT -1
SFAC Se Ag 
Se     1 -0.2912919406611  0.0089655005595  0.4198009655059 1.0
Se     1  0.2912919406611  0.5089655005595 -0.4198009655059 1.0
Se     1 -0.2683102731731 -0.3604374707755 -0.0257643950017 1.0
Se     1  0.2683102731731  0.1395625292245  0.0257643950017 1.0
Ag     2  0.1849509196482  0.0642591600323  0.3751632711488 1.0
Ag     2 -0.1849509196482 -0.4357408399677 -0.3751632711488 1.0
Ag     2  0.2192016135901 -0.3600678149285 -0.0630857721628 1.0
Ag     2 -0.2192016135901  0.1399321850715  0.0630857721628 1.0
Ag     2  0.0202046600562 -0.4231717520523  0.2750667946470 1.0
Ag     2 -0.0202046600562  0.0768282479477 -0.2750667946470 1.0
Ag     2 -0.4767436934527  0.5042369771645  0.2798817762811 1.0
Ag     2  0.4767436934527  0.0042369771645 -0.2798817762811 1.0
END
