TITL 4Ag2SE-200803-155613-33a651 -0.0339 229.845024 -4.61176554E+004 0 0 12 (P3) n - 1
REM
REM Run started: Mon, 03 Aug 2020 16:26:17 +0100 in /lustre/scratch/uccabz1/launch_tmp/launcher_2020-08-03-14-56-11-163750
REM CASTEP 20.1 from code version af48c487+ pr-geom-scf-spinfix Tue Jun 2 15:39:59 2020 +0100
REM Functional PBE for solids (2008) Relativity Koelling-Harmon Dispersion off
REM Cut-off 300.0000 eV Grid scale 1.7500 Gmax 15.5288 1/A FBSC none
REM MP grid 3 3 3 Offset 0.000 0.000 0.000 No. kpts 8 Spacing 0.07
REM Total runtime: 1918.04 s
REM Overall efficiency: 91.1667 %
REM
REM 4Ag2SE.cell (6404a18c6b5dc90313b5c56acf317f23)
REM
REM compiler GCC version 4.9.2
REM options -cpp -iprefix /lustre/shared/ucl/apps/gcc/4.9.2/bin/../lib/gcc/x86_64-unknown-linux-gnu/4.9.2/ -mtune=corei7 -march=x86-64 -g -Og
REM COMMAND_LINE
REM seed -942913431 -6207240 -884212576 -1114439265 1885542868 -1353403369 1447063772 1607037193 -2062893616 1131279497 -1646160293 1355652681
REM
REM Se 3|2.1|7|7|9|40:41:32(qc=5)
REM Ag 3|2.2|7|7|9|40U:50:41:42(qc=5)
REM 
CELL 1.54180    5.22238    7.12883    7.12883  120.00000   90.00000   90.00000
LATT -1
SFAC Se Ag 
Se     1  0.3792241122913  0.0327626048690 -0.3606809382172 1.0
Se     1  0.3792241122913 -0.3934434430862 -0.0327626048690 1.0
Se     1  0.3792241122913  0.3606809382172  0.3934434430862 1.0
Se     1 -0.1490680216254  0.0000000333333 -0.0000000333333 1.0
Ag     2 -0.1379130324164  0.3144583389556  0.4296629911999 1.0
Ag     2 -0.1379130324164  0.1152047522443 -0.3144583389556 1.0
Ag     2 -0.1379130324164 -0.4296629911999 -0.1152047522443 1.0
Ag     2  0.0886656784943 -0.1087993139084  0.2883244866456 1.0
Ag     2  0.0886656784943  0.3971239005541  0.1087993139084 1.0
Ag     2  0.0886656784943 -0.2883244866456 -0.3971239005541 1.0
Ag     2 -0.3568344985260 -0.3333333000000  0.3333333000000 1.0
Ag     2  0.3610204450436  0.0000000333333 -0.0000000333333 1.0
END
