TITL 4Ag2Se_TETRA_OPT-200811-090530-23ac66 -0.0004 237.539178 -4.61182600E+004 0 0 12 (P2) n - 1
REM
REM Run started: Tue, 11 Aug 2020 10:27:20 +0100 in /lustre/scratch/uccabz1/launch_tmp/launcher_2020-08-11-08-05-28-016750
REM CASTEP 20.1 from code version af48c487+ pr-geom-scf-spinfix Tue Jun 2 15:39:59 2020 +0100
REM Functional PBE for solids (2008) Relativity Koelling-Harmon Dispersion off
REM Cut-off 300.0000 eV Grid scale 1.7500 Gmax 15.5288 1/A FBSC none
REM MP grid 3 3 2 Offset 0.000 0.000 0.000 No. kpts 5 Spacing 0.07
REM Total runtime: 5187.69 s
REM Overall efficiency: 91.75 %
REM
REM 4Ag2Se_TETRA_OPT.cell (db6eaae92e6a5f18c152ebab86a92a61)
REM
REM compiler GCC version 4.9.2
REM options -cpp -iprefix /lustre/shared/ucl/apps/gcc/4.9.2/bin/../lib/gcc/x86_64-unknown-linux-gnu/4.9.2/ -mtune=corei7 -march=x86-64 -g -Og
REM COMMAND_LINE
REM seed -259377199 79873846 864093447 -725609259 1335041042 414696868 -2117570855 -548522970 785872026 -1413734269 278437470 459542443
REM
REM Se 3|2.1|7|7|9|40:41:32(qc=5)
REM Ag 3|2.2|7|7|9|40U:50:41:42(qc=5)
REM 
CELL 1.54180    5.58995    5.88991    7.21515   90.00000   90.00000   89.36976
LATT -1
SFAC Se Ag 
Se     1 -0.0000000000000  0.5000000000000 -0.4565170317435 1.0
Se     1 -0.0000000000000  0.0000000000000  0.0716225043551 1.0
Se     1 -0.5000000000000 -0.5000000000000  0.0953645061237 1.0
Se     1 -0.5000000000000  0.0000000000000 -0.4525646503600 1.0
Ag     2 -0.1780990135626 -0.3263504505624 -0.1415298184653 1.0
Ag     2  0.1780990135626  0.3263504505624 -0.1415298184653 1.0
Ag     2  0.3277897149364 -0.1904995991801 -0.1403767164003 1.0
Ag     2 -0.3277897149364  0.1904995991801 -0.1403767164003 1.0
Ag     2 -0.2434724509491 -0.2404915094358  0.3044419637545 1.0
Ag     2  0.2434724509491  0.2404915094358  0.3044419637545 1.0
Ag     2 -0.0000000000000  0.0000000000000 -0.4116547323301 1.0
Ag     2  0.5000000000000 -0.5000000000000 -0.4254893538232 1.0
END
