TITL 4Ag2Se_TETRA-200803-165243-6d60ea -0.0409 242.220888 -4.61158169E+004 0 0 12 (Cc) n - 1
REM
REM Run started: Mon, 03 Aug 2020 17:34:21 +0100 in /lustre/scratch/uccabz1/launch_tmp/launcher_2020-08-03-15-52-41-683916
REM CASTEP 20.1 from code version af48c487+ pr-geom-scf-spinfix Tue Jun 2 15:39:59 2020 +0100
REM Functional PBE for solids (2008) Relativity Koelling-Harmon Dispersion off
REM Cut-off 300.0000 eV Grid scale 1.7500 Gmax 15.5288 1/A FBSC none
REM MP grid 3 3 3 Offset 0.000 0.000 0.000 No. kpts 10 Spacing 0.07
REM Total runtime: 2744.51 s
REM Overall efficiency: 91.25 %
REM
REM 4Ag2Se_TETRA.cell (4020362940262d3df87d4014b41eb05e)
REM
REM compiler GCC version 4.9.2
REM options -cpp -iprefix /lustre/shared/ucl/apps/gcc/4.9.2/bin/../lib/gcc/x86_64-unknown-linux-gnu/4.9.2/ -mtune=corei7 -march=x86-64 -g -Og
REM COMMAND_LINE
REM seed -1975703629 780097262 -455614197 1152432396 1188384253 -466783960 874059471 -464243533 -702750232 828770619 1804818179 -2074078472
REM
REM Se 3|2.1|7|7|9|40:41:32(qc=5)
REM Ag 3|2.2|7|7|9|40U:50:41:42(qc=5)
REM 
CELL 1.54180    6.33043    6.18575    6.18575   90.11604   90.18767   90.18767
LATT -1
SFAC Se Ag 
Se     1 -0.0454084784558 -0.4931541019221 -0.2578889542796 1.0
Se     1  0.4545915215442 -0.2578889542796 -0.4931541019221 1.0
Se     1 -0.0565451175542  0.0470484968097  0.3303872865664 1.0
Se     1  0.4434548824458  0.3303872865664  0.0470484968097 1.0
Ag     2 -0.3552309924894  0.2470659811356 -0.3162137331450 1.0
Ag     2  0.1447690075106 -0.3162137331450  0.2470659811356 1.0
Ag     2  0.0626111930797  0.1776443734417 -0.0374065407236 1.0
Ag     2 -0.4373888069203 -0.0374065407236  0.1776443734417 1.0
Ag     2 -0.2501731840617 -0.4544646033544  0.2080816545703 1.0
Ag     2  0.2498268159383  0.2080816545703 -0.4544646033544 1.0
Ag     2  0.2298195794814 -0.2016654208351 -0.1596910382638 1.0
Ag     2 -0.2701804205186 -0.1596910382638 -0.2016654208351 1.0
END
