TITL 4Ag2Se_TETRA_OPT-200811-093355-c5acf2 -0.0815 227.927064 -4.61183747E+004 0 0 12 (P1) n - 1
REM
REM Run started: Tue, 11 Aug 2020 11:10:03 +0100 in /lustre/scratch/uccabz1/launch_tmp/launcher_2020-08-11-08-33-54-059910
REM CASTEP 20.1 from code version af48c487+ pr-geom-scf-spinfix Tue Jun 2 15:39:59 2020 +0100
REM Functional PBE for solids (2008) Relativity Koelling-Harmon Dispersion off
REM Cut-off 300.0000 eV Grid scale 1.7500 Gmax 15.5288 1/A FBSC none
REM MP grid 4 3 2 Offset 0.000 0.000 0.000 No. kpts 12 Spacing 0.07
REM Total runtime: 5994.52 s
REM Overall efficiency: 83.6 %
REM
REM 4Ag2Se_TETRA_OPT.cell (db6eaae92e6a5f18c152ebab86a92a61)
REM
REM compiler GCC version 4.9.2
REM options -cpp -iprefix /lustre/shared/ucl/apps/gcc/4.9.2/bin/../lib/gcc/x86_64-unknown-linux-gnu/4.9.2/ -mtune=corei7 -march=x86-64 -g -Og
REM COMMAND_LINE
REM seed 1319507365 -3654283 -1472066066 -801306720 165670059 564522240 -778432161 1455680760 -1135537024 -1686033637 390225457 -1465145689
REM
REM Se 3|2.1|7|7|9|40:41:32(qc=5)
REM Ag 3|2.2|7|7|9|40U:50:41:42(qc=5)
REM 
CELL 1.54180    4.61765    7.02496    7.35344   87.21588   90.32207   73.10811
LATT -1
SFAC Se Ag 
Se     1 -0.2814182867233 -0.5065555182278 -0.4499213026572 1.0
Se     1 -0.0175025105956  0.0825039035600  0.2941802941431 1.0
Se     1 -0.5858424096978  0.1156119785291 -0.2290133768560 1.0
Se     1  0.0457082790278 -0.4505912664843  0.0801287597395 1.0
Ag     2  0.5197961340695 -0.0251559122673  0.1391595090959 1.0
Ag     2 -0.3719268843265  0.3478197658365  0.0389759823844 1.0
Ag     2 -0.0013721846161 -0.0398273053879 -0.1072286840078 1.0
Ag     2  0.2005596474502 -0.4585050353984 -0.2726776449208 1.0
Ag     2  0.3441415577987  0.2866805669394  0.4106776289952 1.0
Ag     2 -0.2739348910553 -0.1232554609146  0.5163910748734 1.0
Ag     2  0.2863527581949 -0.2949194151232  0.3452800705288 1.0
Ag     2 -0.3978467095265 -0.2810527010615 -0.1452533113188 1.0
END
