TITL 4Ag2Se_TETRA_OPT-200811-094546-335a4d 0.0118 223.138533 -4.61182897E+004 0 0 12 (P2) n - 1
REM
REM Run started: Tue, 11 Aug 2020 10:53:29 +0100 in /lustre/scratch/uccabz1/launch_tmp/launcher_2020-08-11-08-45-44-870169
REM CASTEP 20.1 from code version af48c487+ pr-geom-scf-spinfix Tue Jun 2 15:39:59 2020 +0100
REM Functional PBE for solids (2008) Relativity Koelling-Harmon Dispersion off
REM Cut-off 300.0000 eV Grid scale 1.7500 Gmax 15.5288 1/A FBSC none
REM MP grid 3 2 3 Offset 0.000 0.000 0.000 No. kpts 6 Spacing 0.07
REM Total runtime: 4169.68 s
REM Overall efficiency: 81 %
REM
REM 4Ag2Se_TETRA_OPT.cell (db6eaae92e6a5f18c152ebab86a92a61)
REM
REM compiler GCC version 4.9.2
REM options -cpp -iprefix /lustre/shared/ucl/apps/gcc/4.9.2/bin/../lib/gcc/x86_64-unknown-linux-gnu/4.9.2/ -mtune=corei7 -march=x86-64 -g -Og
REM COMMAND_LINE
REM seed 1343642863 -2132616530 1545706122 66777779 868191978 -1878677163 -1672090364 -187407046 -1597813203 -725545635 -1949291247 2059274669
REM
REM Se 3|2.1|7|7|9|40:41:32(qc=5)
REM Ag 3|2.2|7|7|9|40U:50:41:42(qc=5)
REM 
CELL 1.54180    5.25847    7.30407    5.83768   90.00000   90.00000   84.38404
LATT -1
SFAC Se Ag 
Se     1  0.2170958691365 -0.3507538147246  0.2139945103976 1.0
Se     1 -0.2170958691365  0.3507538147246  0.2139945103976 1.0
Se     1  0.2747124533682  0.2341752561262 -0.2856400988319 1.0
Se     1 -0.2747124533682 -0.2341752561262 -0.2856400988319 1.0
Ag     2 -0.2565767119378  0.0610028513233  0.4550916099946 1.0
Ag     2  0.2565767119378 -0.0610028513233  0.4550916099946 1.0
Ag     2  0.2336143757633 -0.3984021416806 -0.3010551839683 1.0
Ag     2 -0.2336143757633  0.3984021416806 -0.3010551839683 1.0
Ag     2  0.2563205850296 -0.0689845307549 -0.0420154394238 1.0
Ag     2 -0.2563205850296  0.0689845307549 -0.0420154394238 1.0
Ag     2  0.2861918130501  0.2664073723111  0.2056863018320 1.0
Ag     2 -0.2861918130501 -0.2664073723111  0.2056863018320 1.0
END
