TITL 4Ag2Se_TETRA-200803-162509-c72681 0.0002 233.131750 -4.61181021E+004 0 0 12 (P41) n - 1
REM
REM Run started: Mon, 03 Aug 2020 16:36:00 +0100 in /lustre/scratch/uccabz1/launch_tmp/launcher_2020-08-03-15-25-08-069882
REM CASTEP 20.1 from code version af48c487+ pr-geom-scf-spinfix Tue Jun 2 15:39:59 2020 +0100
REM Functional PBE for solids (2008) Relativity Koelling-Harmon Dispersion off
REM Cut-off 300.0000 eV Grid scale 1.7500 Gmax 15.5288 1/A FBSC none
REM MP grid 2 4 2 Offset 0.000 0.000 0.000 No. kpts 2 Spacing 0.07
REM Total runtime: 711.15 s
REM Overall efficiency: 58.5 %
REM
REM 4Ag2Se_TETRA.cell (4020362940262d3df87d4014b41eb05e)
REM
REM compiler GCC version 4.9.2
REM options -cpp -iprefix /lustre/shared/ucl/apps/gcc/4.9.2/bin/../lib/gcc/x86_64-unknown-linux-gnu/4.9.2/ -mtune=corei7 -march=x86-64 -g -Og
REM COMMAND_LINE
REM seed 1657334869 -1205525867 -61239405 -1210993066 -1216613339 1760935379 1814247542 1609117315 -839505769 1833133110 869151017 710577246
REM
REM Se 3|2.1|7|7|9|40:41:32(qc=5)
REM Ag 3|2.2|7|7|9|40U:50:41:42(qc=5)
REM 
CELL 1.54180    7.20688    4.48856    7.20688   90.00000   90.00000   90.00000
LATT -1
SFAC Se Ag 
Se     1 -0.3432861753154  0.4030555739887 -0.1564585998094 1.0
Se     1  0.3432861753154 -0.0969444260113  0.1564585998094 1.0
Se     1  0.1564585998094  0.1530555739887 -0.3432861753154 1.0
Se     1 -0.1564585998094 -0.3469444260113  0.3432861753154 1.0
Ag     2 -0.2564449975168 -0.0906009882286  0.0293544440081 1.0
Ag     2  0.2564449975168  0.4093990117714 -0.0293544440081 1.0
Ag     2 -0.0293544440081 -0.3406009882286 -0.2564449975168 1.0
Ag     2  0.0293544440081  0.1593990117714  0.2564449975168 1.0
Ag     2  0.4443624269302 -0.1475436857601 -0.2462946316116 1.0
Ag     2 -0.4443624269302  0.3524563142399  0.2462946316116 1.0
Ag     2  0.2462946316116 -0.3975436857601  0.4443624269302 1.0
Ag     2 -0.2462946316116  0.1024563142399 -0.4443624269302 1.0
END
