TITL 4Ag2Se_TETRA-200803-164047-13f392 -0.0074 242.265257 -4.61178697E+004 0 0 12 (P2/m) n - 1
REM
REM Run started: Mon, 03 Aug 2020 17:03:01 +0100 in /lustre/scratch/uccabz1/launch_tmp/launcher_2020-08-03-15-40-45-531700
REM CASTEP 20.1 from code version af48c487+ pr-geom-scf-spinfix Tue Jun 2 15:39:59 2020 +0100
REM Functional PBE for solids (2008) Relativity Koelling-Harmon Dispersion off
REM Cut-off 300.0000 eV Grid scale 1.7500 Gmax 15.5288 1/A FBSC none
REM MP grid 2 4 2 Offset 0.000 0.000 0.000 No. kpts 4 Spacing 0.07
REM Total runtime: 1460.63 s
REM Overall efficiency: 74.75 %
REM
REM 4Ag2Se_TETRA.cell (4020362940262d3df87d4014b41eb05e)
REM
REM compiler GCC version 4.9.2
REM options -cpp -iprefix /lustre/shared/ucl/apps/gcc/4.9.2/bin/../lib/gcc/x86_64-unknown-linux-gnu/4.9.2/ -mtune=corei7 -march=x86-64 -g -Og
REM COMMAND_LINE
REM seed -1039170962 324291515 501614947 1982166806 -1247337004 1385820709 -112318760 -1701955883 -413287444 646970694 1544388636 192438528
REM
REM Se 3|2.1|7|7|9|40:41:32(qc=5)
REM Ag 3|2.2|7|7|9|40U:50:41:42(qc=5)
REM 
CELL 1.54180    7.57092    3.97432    8.09347   90.00000   84.16548   90.00000
LATT -1
SFAC Se Ag 
Se     1 -0.2285115210800  0.1287337000000 -0.1340950472117 1.0
Se     1  0.2285115210800  0.1287337000000  0.1340950472117 1.0
Se     1  0.2832902816648 -0.3712663000000 -0.3512472570162 1.0
Se     1 -0.2832902816648 -0.3712663000000  0.3512472570162 1.0
Ag     2 -0.1343525171779  0.1287337000000  0.1653216071819 1.0
Ag     2  0.1343525171779  0.1287337000000 -0.1653216071819 1.0
Ag     2 -0.4474520333977 -0.3712663000000 -0.1779355737662 1.0
Ag     2  0.4474520333977 -0.3712663000000  0.1779355737662 1.0
Ag     2  0.0699796123459 -0.3712663000000  0.3302324304488 1.0
Ag     2 -0.0699796123459 -0.3712663000000 -0.3302324304488 1.0
Ag     2  0.3264363739462  0.1287337000000  0.4372799838127 1.0
Ag     2 -0.3264363739462  0.1287337000000 -0.4372799838127 1.0
END
