TITL 4Ag2Se_TETRA-200803-163445-105a85 0.0466 240.310570 -4.61171515E+004 0 0 12 (R3) n - 1
REM
REM Run started: Mon, 03 Aug 2020 16:58:30 +0100 in /lustre/scratch/uccabz1/launch_tmp/launcher_2020-08-03-15-34-43-088560
REM CASTEP 20.1 from code version af48c487+ pr-geom-scf-spinfix Tue Jun 2 15:39:59 2020 +0100
REM Functional PBE for solids (2008) Relativity Koelling-Harmon Dispersion off
REM Cut-off 300.0000 eV Grid scale 1.7500 Gmax 15.5288 1/A FBSC none
REM MP grid 3 3 3 Offset 0.000 0.000 0.000 No. kpts 6 Spacing 0.07
REM Total runtime: 1567.85 s
REM Overall efficiency: 64.6667 %
REM
REM 4Ag2Se_TETRA.cell (4020362940262d3df87d4014b41eb05e)
REM
REM compiler GCC version 4.9.2
REM options -cpp -iprefix /lustre/shared/ucl/apps/gcc/4.9.2/bin/../lib/gcc/x86_64-unknown-linux-gnu/4.9.2/ -mtune=corei7 -march=x86-64 -g -Og
REM COMMAND_LINE
REM seed -832486943 -1620254841 21969588 -1197870860 -181923315 -527182134 891551988 36402884 1620115974 -1352255864 554924752 1556100561
REM
REM Se 3|2.1|7|7|9|40:41:32(qc=5)
REM Ag 3|2.2|7|7|9|40U:50:41:42(qc=5)
REM 
CELL 1.54180    6.21943    6.21943    6.21943   91.53832   91.53832   91.53832
LATT -1
SFAC Se Ag 
Se     1 -0.4626770642932  0.4091794353485 -0.1062138630831 1.0
Se     1  0.4091794353485 -0.1062138630831 -0.4626770642932 1.0
Se     1 -0.1062138630831 -0.4626770642932  0.4091794353485 1.0
Se     1 -0.0440471219509 -0.0440471219509 -0.0440471219509 1.0
Ag     2  0.0662026429876 -0.3995869686608 -0.2211113950975 1.0
Ag     2 -0.3995869686608 -0.2211113950975  0.0662026429876 1.0
Ag     2 -0.2211113950975  0.0662026429876 -0.3995869686608 1.0
Ag     2 -0.2653083876161  0.2105361377620  0.1968374000852 1.0
Ag     2  0.2105361377620  0.1968374000852 -0.2653083876161 1.0
Ag     2  0.1968374000852 -0.2653083876161  0.2105361377620 1.0
Ag     2  0.2137440886886  0.2137440886886  0.2137440886886 1.0
Ag     2  0.4748826958296  0.4748826958296  0.4748826958296 1.0
END
