TITL 4Ag2SE-200803-155101-129689 0.0259 233.485974 -4.61172244E+004 0 0 12 (R3) n - 1
REM
REM Run started: Mon, 03 Aug 2020 16:08:12 +0100 in /lustre/scratch/uccabz1/launch_tmp/launcher_2020-08-03-14-50-59-565773
REM CASTEP 20.1 from code version af48c487+ pr-geom-scf-spinfix Tue Jun 2 15:39:59 2020 +0100
REM Functional PBE for solids (2008) Relativity Koelling-Harmon Dispersion off
REM Cut-off 300.0000 eV Grid scale 1.7500 Gmax 15.5288 1/A FBSC none
REM MP grid 3 3 3 Offset 0.000 0.000 0.000 No. kpts 6 Spacing 0.07
REM Total runtime: 1204.67 s
REM Overall efficiency: 71.3333 %
REM
REM 4Ag2SE.cell (6404a18c6b5dc90313b5c56acf317f23)
REM
REM compiler GCC version 4.9.2
REM options -cpp -iprefix /lustre/shared/ucl/apps/gcc/4.9.2/bin/../lib/gcc/x86_64-unknown-linux-gnu/4.9.2/ -mtune=corei7 -march=x86-64 -g -Og
REM COMMAND_LINE
REM seed -253619165 -1571894507 242827471 2126159473 544286033 -2143333449 1501589102 193308834 1927365873 1179355890 -349990297 47266611
REM
REM Se 3|2.1|7|7|9|40:41:32(qc=5)
REM Ag 3|2.2|7|7|9|40U:50:41:42(qc=5)
REM 
CELL 1.54180    6.66385    6.66385    6.66385   65.31963   65.31963   65.31963
LATT -1
SFAC Se Ag 
Se     1  0.3404024817594 -0.3960685905671 -0.0933139844927 1.0
Se     1 -0.0933139844927  0.3404024817594 -0.3960685905671 1.0
Se     1 -0.3960685905671 -0.0933139844927  0.3404024817594 1.0
Se     1  0.1152807932718  0.1152807932718  0.1152807932718 1.0
Ag     2  0.4371612364100 -0.3309749661872  0.2092424190061 1.0
Ag     2  0.2092424190061  0.4371612364100 -0.3309749661872 1.0
Ag     2 -0.3309749661872  0.2092424190061  0.4371612364100 1.0
Ag     2 -0.0910187908168 -0.4675640591543  0.1510201476139 1.0
Ag     2  0.1510201476139 -0.0910187908168 -0.4675640591543 1.0
Ag     2 -0.4675640591543  0.1510201476139 -0.0910187908168 1.0
Ag     2 -0.0455952395873 -0.0455952395873 -0.0455952395873 1.0
Ag     2 -0.2588560472557 -0.2588560472557 -0.2588560472557 1.0
END
