TITL 4Ag2SE-200803-155108-bc6fbb 0.0072 233.566259 -4.61170668E+004 0 0 12 (R3) n - 1
REM
REM Run started: Mon, 03 Aug 2020 16:08:24 +0100 in /lustre/scratch/uccabz1/launch_tmp/launcher_2020-08-03-14-51-06-101059
REM CASTEP 20.1 from code version af48c487+ pr-geom-scf-spinfix Tue Jun 2 15:39:59 2020 +0100
REM Functional PBE for solids (2008) Relativity Koelling-Harmon Dispersion off
REM Cut-off 300.0000 eV Grid scale 1.7500 Gmax 15.5288 1/A FBSC none
REM MP grid 3 3 3 Offset 0.000 0.000 0.000 No. kpts 6 Spacing 0.07
REM Total runtime: 1093.86 s
REM Overall efficiency: 65.3333 %
REM
REM 4Ag2SE.cell (6404a18c6b5dc90313b5c56acf317f23)
REM
REM compiler GCC version 4.9.2
REM options -cpp -iprefix /lustre/shared/ucl/apps/gcc/4.9.2/bin/../lib/gcc/x86_64-unknown-linux-gnu/4.9.2/ -mtune=corei7 -march=x86-64 -g -Og
REM COMMAND_LINE
REM seed -2143162827 2029553427 -221610337 807571584 808944032 -1680949957 1854985673 -720683184 1615262066 -1258148316 -2046447756 1311936992
REM
REM Se 3|2.1|7|7|9|40:41:32(qc=5)
REM Ag 3|2.2|7|7|9|40U:50:41:42(qc=5)
REM 
CELL 1.54180    6.46495    6.46495    6.46495   70.82354   70.82354   70.82354
LATT -1
SFAC Se Ag 
Se     1  0.1979874046331  0.3822029962977 -0.2901904238706 1.0
Se     1  0.3822029962977 -0.2901904238706  0.1979874046331 1.0
Se     1 -0.2901904238706  0.1979874046331  0.3822029962977 1.0
Se     1 -0.0714760952857 -0.0714760952857 -0.0714760952857 1.0
Ag     2 -0.3515688182567 -0.1951566404177  0.3678860754464 1.0
Ag     2 -0.1951566404177  0.3678860754464 -0.3515688182567 1.0
Ag     2  0.3678860754464 -0.3515688182567 -0.1951566404177 1.0
Ag     2 -0.4590020001182 -0.0090789140965 -0.1924120267092 1.0
Ag     2 -0.0090789140965 -0.1924120267092 -0.4590020001182 1.0
Ag     2 -0.1924120267092 -0.4590020001182 -0.0090789140965 1.0
Ag     2  0.1120586701032  0.1120586701032  0.1120586701032 1.0
Ag     2  0.2980900722742  0.2980900722742  0.2980900722742 1.0
END
