TITL 4Ag2SE-200803-160654-eb0e19 0.0363 237.015662 -4.61179065E+004 0 0 12 (P3) n - 1
REM
REM Run started: Mon, 03 Aug 2020 16:51:04 +0100 in /lustre/scratch/uccabz1/launch_tmp/launcher_2020-08-03-15-06-53-036430
REM CASTEP 20.1 from code version af48c487+ pr-geom-scf-spinfix Tue Jun 2 15:39:59 2020 +0100
REM Functional PBE for solids (2008) Relativity Koelling-Harmon Dispersion off
REM Cut-off 300.0000 eV Grid scale 1.7500 Gmax 15.5288 1/A FBSC none
REM MP grid 4 3 3 Offset 0.000 0.000 0.000 No. kpts 10 Spacing 0.07
REM Total runtime: 2937.68 s
REM Overall efficiency: 93.2857 %
REM
REM 4Ag2SE.cell (6404a18c6b5dc90313b5c56acf317f23)
REM
REM compiler GCC version 4.9.2
REM options -cpp -iprefix /lustre/shared/ucl/apps/gcc/4.9.2/bin/../lib/gcc/x86_64-unknown-linux-gnu/4.9.2/ -mtune=corei7 -march=x86-64 -g -Og
REM COMMAND_LINE
REM seed -542968533 -1413623516 396607440 -1534891856 2065352440 1275466410 -1100953102 1186392913 -1768047440 1277485841 745049682 -1816810097
REM
REM Se 3|2.1|7|7|9|40:41:32(qc=5)
REM Ag 3|2.2|7|7|9|40U:50:41:42(qc=5)
REM 
CELL 1.54180    4.71586    7.61803    7.61803  120.00000   90.00000   90.00000
LATT -1
SFAC Se Ag 
Se     1  0.3819127849412 -0.0549289334236 -0.4469424484832 1.0
Se     1  0.3819127849412  0.4469424484832  0.3920136150597 1.0
Se     1  0.3819127849412 -0.3920136150597  0.0549289334236 1.0
Se     1 -0.0592525946229 -0.0000000333333  0.0000000333333 1.0
Ag     2 -0.1053077997005 -0.4485577738191 -0.1113955079115 1.0
Ag     2 -0.1053077997005  0.1113955079115 -0.3371621659076 1.0
Ag     2 -0.1053077997005  0.3371621659076  0.4485577738191 1.0
Ag     2 -0.3569342779029  0.2986026098135  0.0392489010298 1.0
Ag     2 -0.3569342779029 -0.0392489010298  0.2593538087836 1.0
Ag     2 -0.3569342779029 -0.2593538087836 -0.2986026098135 1.0
Ag     2  0.3980207866478  0.3333333000000 -0.3333333000000 1.0
Ag     2 -0.0537617140381 -0.3333333666667  0.3333333666667 1.0
END
