TITL 4Ag2Se_TETRA_OPT-200811-095350-09313c -0.0014 229.784988 -4.61184637E+004 0 0 12 (P1) n - 1
REM
REM Run started: Tue, 11 Aug 2020 11:09:11 +0100 in /lustre/scratch/uccabz1/launch_tmp/launcher_2020-08-11-08-53-48-841810
REM CASTEP 20.1 from code version af48c487+ pr-geom-scf-spinfix Tue Jun 2 15:39:59 2020 +0100
REM Functional PBE for solids (2008) Relativity Koelling-Harmon Dispersion off
REM Cut-off 300.0000 eV Grid scale 1.7500 Gmax 15.5288 1/A FBSC none
REM MP grid 4 2 3 Offset 0.000 0.000 0.000 No. kpts 12 Spacing 0.07
REM Total runtime: 4577.21 s
REM Overall efficiency: 83.6667 %
REM
REM 4Ag2Se_TETRA_OPT.cell (db6eaae92e6a5f18c152ebab86a92a61)
REM
REM compiler GCC version 4.9.2
REM options -cpp -iprefix /lustre/shared/ucl/apps/gcc/4.9.2/bin/../lib/gcc/x86_64-unknown-linux-gnu/4.9.2/ -mtune=corei7 -march=x86-64 -g -Og
REM COMMAND_LINE
REM seed 167067711 -37400543 -955047833 -1035678749 360545027 -1957192422 482191022 1562713743 168850788 -703709257 -2136120657 1335943
REM
REM Se 3|2.1|7|7|9|40:41:32(qc=5)
REM Ag 3|2.2|7|7|9|40U:50:41:42(qc=5)
REM 
CELL 1.54180    4.48934    7.22814    7.21570   86.16980   98.93545   85.33001
LATT -1
SFAC Se Ag 
Se     1 -0.3660845430787 -0.5192568528121 -0.2601435611218 1.0
Se     1  0.1725033530115 -0.0134930789587 -0.1538398861372 1.0
Se     1 -0.2455518657227 -0.2613076855294  0.3446374754925 1.0
Se     1  0.3602857098213  0.2594968388019  0.2947420805548 1.0
Ag     2  0.2205231005209  0.3417373172181 -0.0886574279737 1.0
Ag     2 -0.2294409864607  0.4326897246267  0.1227976102876 1.0
Ag     2 -0.2447184187428  0.0737192140041 -0.4406378079343 1.0
Ag     2  0.2467475960292 -0.3228614623704  0.1221695833408 1.0
Ag     2 -0.2900915744519 -0.1991579840776 -0.1063159537661 1.0
Ag     2  0.2985730382190 -0.1955634380540 -0.4552461881841 1.0
Ag     2 -0.0439223976405  0.0320272021595  0.1999751429519 1.0
Ag     2  0.0535940884954  0.4207390049919 -0.4764599675104 1.0
END
