TITL 4Ag2SE-200803-154822-af438d -0.0271 238.936157 -4.61182767E+004 0 0 12 (P2) n - 1
REM
REM Run started: Mon, 03 Aug 2020 16:42:01 +0100 in /lustre/scratch/uccabz1/launch_tmp/launcher_2020-08-03-14-48-20-965009
REM CASTEP 20.1 from code version af48c487+ pr-geom-scf-spinfix Tue Jun 2 15:39:59 2020 +0100
REM Functional PBE for solids (2008) Relativity Koelling-Harmon Dispersion off
REM Cut-off 300.0000 eV Grid scale 1.7500 Gmax 15.5288 1/A FBSC none
REM MP grid 4 2 2 Offset 0.000 0.000 0.000 No. kpts 4 Spacing 0.07
REM Total runtime: 3242.21 s
REM Overall efficiency: 72.5 %
REM
REM 4Ag2SE.cell (6404a18c6b5dc90313b5c56acf317f23)
REM
REM compiler GCC version 4.9.2
REM options -cpp -iprefix /lustre/shared/ucl/apps/gcc/4.9.2/bin/../lib/gcc/x86_64-unknown-linux-gnu/4.9.2/ -mtune=corei7 -march=x86-64 -g -Og
REM COMMAND_LINE
REM seed -1136979378 -1429563849 681158804 -387693123 -949773206 184632170 1275832920 -2131776057 1562066085 172122496 2131772949 1987656806
REM
REM Se 3|2.1|7|7|9|40:41:32(qc=5)
REM Ag 3|2.2|7|7|9|40U:50:41:42(qc=5)
REM 
CELL 1.54180    4.38260    7.39148    7.38773   93.23437   90.00000   90.00000
LATT -1
SFAC Se Ag 
Se     1 -0.1698267428912  0.2741415490649 -0.0977680553370 1.0
Se     1 -0.1698267428912 -0.2741415490649  0.0977680553370 1.0
Se     1  0.2438254661959  0.2594903128916  0.3371612208342 1.0
Se     1  0.2438254661959 -0.2594903128916 -0.3371612208342 1.0
Ag     2 -0.2934315286745  0.0726796313097  0.1856784659949 1.0
Ag     2 -0.2934315286745 -0.0726796313097 -0.1856784659949 1.0
Ag     2 -0.6594905885298 -0.5550015248180 -0.1817543694398 1.0
Ag     2 -0.6594905885298  0.5550015248180  0.1817543694398 1.0
Ag     2  0.2145985658043  0.0993427227741 -0.3301945758469 1.0
Ag     2  0.2145985658043 -0.0993427227741  0.3301945758469 1.0
Ag     2 -0.2751470719047 -0.3012550571180  0.4587872848405 1.0
Ag     2 -0.2751470719047  0.3012550571180 -0.4587872848405 1.0
END
