TITL 4Ag2Se_TETRA_OPT-200811-112508-7bd298 -0.0409 227.781465 -4.61183571E+004 0 0 12 (P1) n - 1
REM
REM Run started: Tue, 11 Aug 2020 13:13:37 +0100 in /lustre/scratch/uccabz1/launch_tmp/launcher_2020-08-11-10-25-06-738263
REM CASTEP 20.1 from code version af48c487+ pr-geom-scf-spinfix Tue Jun 2 15:39:59 2020 +0100
REM Functional PBE for solids (2008) Relativity Koelling-Harmon Dispersion off
REM Cut-off 300.0000 eV Grid scale 1.7500 Gmax 15.5288 1/A FBSC none
REM MP grid 3 3 3 Offset 0.000 0.000 0.000 No. kpts 14 Spacing 0.07
REM Total runtime: 6551.9 s
REM Overall efficiency: 92.9 %
REM
REM 4Ag2Se_TETRA_OPT.cell (db6eaae92e6a5f18c152ebab86a92a61)
REM
REM compiler GCC version 4.9.2
REM options -cpp -iprefix /lustre/shared/ucl/apps/gcc/4.9.2/bin/../lib/gcc/x86_64-unknown-linux-gnu/4.9.2/ -mtune=corei7 -march=x86-64 -g -Og
REM COMMAND_LINE
REM seed -1091917853 -1510861473 -612474683 -2012524386 -1154345270 -1494499916 258647841 1662778430 -892665616 -1908911285 -732619681 1859238398
REM
REM Se 3|2.1|7|7|9|40:41:32(qc=5)
REM Ag 3|2.2|7|7|9|40U:50:41:42(qc=5)
REM 
CELL 1.54180    4.92712    6.91564    6.68557   89.25052   90.22022   89.71057
LATT -1
SFAC Se Ag 
Se     1  0.0272510926221 -0.2390472184494 -0.3877413443537 1.0
Se     1 -0.5020646053431 -0.2431925388198  0.2283979904016 1.0
Se     1 -0.0125321498322  0.3160929366750  0.0009122415595 1.0
Se     1  0.5392446864293  0.3200918585335 -0.4067065341645 1.0
Ag     2 -0.0926488012879 -0.2735974075761 -0.0108137990986 1.0
Ag     2  0.0480827656560  0.1508883217153 -0.3707751445027 1.0
Ag     2  0.3167427544277  0.0149903879381 -0.0097746180321 1.0
Ag     2  0.4563653368536  0.3533478497841  0.2004371001465 1.0
Ag     2 -0.4592909883641 -0.0668477934409 -0.3905086330137 1.0
Ag     2 -0.0347251147335 -0.5269725640525  0.3675937892390 1.0
Ag     2 -0.1615112317397  0.0469081007107  0.2501806068621 1.0
Ag     2  0.4147864553117 -0.4024013330178 -0.1540039550434 1.0
END
