TITL 4Ag2Se_TETRA_OPT-200811-113915-0e7ca7 0.0392 221.344810 -4.61185633E+004 0 0 12 (P1) n - 1
REM
REM Run started: Tue, 11 Aug 2020 14:07:16 +0100 in /lustre/scratch/uccabz1/launch_tmp/launcher_2020-08-11-10-39-14-153140
REM CASTEP 20.1 from code version af48c487+ pr-geom-scf-spinfix Tue Jun 2 15:39:59 2020 +0100
REM Functional PBE for solids (2008) Relativity Koelling-Harmon Dispersion off
REM Cut-off 300.0000 eV Grid scale 1.7500 Gmax 15.5288 1/A FBSC none
REM MP grid 3 3 3 Offset 0.000 0.000 0.000 No. kpts 14 Spacing 0.07
REM Total runtime: 9781.46 s
REM Overall efficiency: 95.1667 %
REM
REM 4Ag2Se_TETRA_OPT.cell (db6eaae92e6a5f18c152ebab86a92a61)
REM
REM compiler GCC version 4.9.2
REM options -cpp -iprefix /lustre/shared/ucl/apps/gcc/4.9.2/bin/../lib/gcc/x86_64-unknown-linux-gnu/4.9.2/ -mtune=corei7 -march=x86-64 -g -Og
REM COMMAND_LINE
REM seed -1853246165 -1281397977 -850803942 -1956448189 1582848304 931142090 1382876683 -742460426 1791418064 -666924302 1077788881 -1849618554
REM
REM Se 3|2.1|7|7|9|40:41:32(qc=5)
REM Ag 3|2.2|7|7|9|40U:50:41:42(qc=5)
REM 
CELL 1.54180    5.36654    6.03021    6.84335   90.00461   91.52984   88.96119
LATT -1
SFAC Se Ag 
Se     1  0.3571265825216 -0.2525294056314  0.0621289264911 1.0
Se     1 -0.2413549038068 -0.2868155961626 -0.5256150105462 1.0
Se     1  0.2758412050701  0.3217788426087 -0.5152271026401 1.0
Se     1 -0.1278951284062  0.3211735964131  0.0697688030984 1.0
Ag     2  0.2216278082254 -0.1101834390441  0.4139093176428 1.0
Ag     2  0.3782425774151  0.2357048010189  0.0922171363487 1.0
Ag     2  0.0517226706109  0.1155258304210 -0.2332607999990 1.0
Ag     2 -0.3976767161197  0.4182104918638 -0.2423512658361 1.0
Ag     2 -0.2585793139812  0.1568925580925  0.4122829616588 1.0
Ag     2  0.0912477151169 -0.3632440475677 -0.2451883430337 1.0
Ag     2 -0.1379186704567 -0.1585236460154  0.0911382032218 1.0
Ag     2 -0.4492968261896 -0.0614419859967 -0.2424344264065 1.0
END
