TITL 4Ag2Se_TETRA_OPT-200811-090526-617660 -0.0364 223.515494 -4.61184615E+004 0 0 12 (P1) n - 1
REM
REM Run started: Tue, 11 Aug 2020 11:27:28 +0100 in /lustre/scratch/uccabz1/launch_tmp/launcher_2020-08-11-08-05-24-872268
REM CASTEP 20.1 from code version af48c487+ pr-geom-scf-spinfix Tue Jun 2 15:39:59 2020 +0100
REM Functional PBE for solids (2008) Relativity Koelling-Harmon Dispersion off
REM Cut-off 300.0000 eV Grid scale 1.7500 Gmax 15.5288 1/A FBSC none
REM MP grid 3 3 3 Offset 0.000 0.000 0.000 No. kpts 14 Spacing 0.07
REM Total runtime: 9495.13 s
REM Overall efficiency: 95.5 %
REM
REM 4Ag2Se_TETRA_OPT.cell (db6eaae92e6a5f18c152ebab86a92a61)
REM
REM compiler GCC version 4.9.2
REM options -cpp -iprefix /lustre/shared/ucl/apps/gcc/4.9.2/bin/../lib/gcc/x86_64-unknown-linux-gnu/4.9.2/ -mtune=corei7 -march=x86-64 -g -Og
REM COMMAND_LINE
REM seed 1823113113 -2131193784 226577217 -194752103 -417174043 1907512492 -1541417800 -1928570231 1230564313 -1541278313 -75912684 1163617130
REM
REM Se 3|2.1|7|7|9|40:41:32(qc=5)
REM Ag 3|2.2|7|7|9|40U:50:41:42(qc=5)
REM 
CELL 1.54180    4.92382    6.80297    6.73960   85.94541   83.09097   88.46535
LATT -1
SFAC Se Ag 
Se     1  0.3078635190648 -0.1834849678162  0.2442159415668 1.0
Se     1 -0.2196191599290  0.3539653724529  0.3439594524289 1.0
Se     1 -0.0531249032734 -0.0877406536709 -0.2427865995975 1.0
Se     1  0.3225770977941  0.3382843647725 -0.1136881169413 1.0
Ag     2 -0.5295275690669 -0.2902102565283 -0.1458734304626 1.0
Ag     2  0.2930856102916  0.2035726570957  0.2664880588040 1.0
Ag     2 -0.1785863224725  0.0432858531889  0.1166870186850 1.0
Ag     2 -0.2219353111059 -0.2506452890432  0.4472795652031 1.0
Ag     2 -0.1581541927476  0.3439917214593 -0.2511052718509 1.0
Ag     2  0.2872631224482  0.5238392940141 -0.4795839454992 1.0
Ag     2  0.4693021506601  0.0637563921970 -0.3801666765076 1.0
Ag     2 -0.0698436416635 -0.3814039881216  0.0472046041713 1.0
END
