TITL 4Ag2SE-200803-155113-ffc267 -0.0387 226.020940 -4.61174426E+004 0 0 12 (R3) n - 1
REM
REM Run started: Mon, 03 Aug 2020 16:39:53 +0100 in /lustre/scratch/uccabz1/launch_tmp/launcher_2020-08-03-14-51-11-811761
REM CASTEP 20.1 from code version af48c487+ pr-geom-scf-spinfix Tue Jun 2 15:39:59 2020 +0100
REM Functional PBE for solids (2008) Relativity Koelling-Harmon Dispersion off
REM Cut-off 300.0000 eV Grid scale 1.7500 Gmax 15.5288 1/A FBSC none
REM MP grid 3 3 3 Offset 0.000 0.000 0.000 No. kpts 6 Spacing 0.07
REM Total runtime: 2914.11 s
REM Overall efficiency: 69.1 %
REM
REM 4Ag2SE.cell (6404a18c6b5dc90313b5c56acf317f23)
REM
REM compiler GCC version 4.9.2
REM options -cpp -iprefix /lustre/shared/ucl/apps/gcc/4.9.2/bin/../lib/gcc/x86_64-unknown-linux-gnu/4.9.2/ -mtune=corei7 -march=x86-64 -g -Og
REM COMMAND_LINE
REM seed -1489897868 184627891 1197304602 387288905 -1534076180 347005760 -923948877 58462205 -1185631361 -61324059 681902560 1869211575
REM
REM Se 3|2.1|7|7|9|40:41:32(qc=5)
REM Ag 3|2.2|7|7|9|40U:50:41:42(qc=5)
REM 
CELL 1.54180    6.60511    6.60511    6.60511   65.00245   65.00245   65.00245
LATT -1
SFAC Se Ag 
Se     1 -0.1516149649234 -0.4095079002047  0.2830318998085 1.0
Se     1 -0.4095079002047  0.2830318998085 -0.1516149649234 1.0
Se     1  0.2830318998085 -0.1516149649234 -0.4095079002047 1.0
Se     1  0.0538613317170  0.0538613317170  0.0538613317170 1.0
Ag     2  0.1766169950029 -0.3588308710127  0.3814628577404 1.0
Ag     2 -0.3588308710127  0.3814628577404  0.1766169950029 1.0
Ag     2  0.3814628577404  0.1766169950029 -0.3588308710127 1.0
Ag     2  0.5202533633929 -0.1334714114847  0.0697353226839 1.0
Ag     2 -0.1334714114847  0.0697353226839  0.5202533633929 1.0
Ag     2  0.0697353226839  0.5202533633929 -0.1334714114847 1.0
Ag     2 -0.3096267003398 -0.3096267003398 -0.3096267003398 1.0
Ag     2  0.2512613776196  0.2512613776196  0.2512613776196 1.0
END
