TITL 4Ag2Se_TETRA_OPT-200811-113135-1a597c 0.0410 221.470001 -4.61187928E+004 0 0 12 (P212121) n - 1
REM
REM Run started: Tue, 11 Aug 2020 12:14:06 +0100 in /lustre/scratch/uccabz1/launch_tmp/launcher_2020-08-11-10-31-33-453202
REM CASTEP 20.1 from code version af48c487+ pr-geom-scf-spinfix Tue Jun 2 15:39:59 2020 +0100
REM Functional PBE for solids (2008) Relativity Koelling-Harmon Dispersion off
REM Cut-off 300.0000 eV Grid scale 1.7500 Gmax 15.5288 1/A FBSC none
REM MP grid 4 2 3 Offset 0.000 0.000 0.000 No. kpts 4 Spacing 0.07
REM Total runtime: 2666.91 s
REM Overall efficiency: 81.7 %
REM
REM 4Ag2Se_TETRA_OPT.cell (db6eaae92e6a5f18c152ebab86a92a61)
REM
REM compiler GCC version 4.9.2
REM options -cpp -iprefix /lustre/shared/ucl/apps/gcc/4.9.2/bin/../lib/gcc/x86_64-unknown-linux-gnu/4.9.2/ -mtune=corei7 -march=x86-64 -g -Og
REM COMMAND_LINE
REM seed 1673364678 -432521376 643135373 206549398 -863064404 -220776577 -1370202285 1945185037 405154315 1854038180 -566235336 -721494650
REM
REM Se 3|2.1|7|7|9|40:41:32(qc=5)
REM Ag 3|2.2|7|7|9|40U:50:41:42(qc=5)
REM 
CELL 1.54180    4.47511    7.24793    6.82806   90.00000   90.00000   90.00000
LATT -1
SFAC Se Ag 
Se     1 -0.3810738636665 -0.1786131630514 -0.0065256085937 1.0
Se     1 -0.1189261363335  0.3213868369486  0.0065256085937 1.0
Se     1  0.3810738636665 -0.3213868369486  0.4934743914063 1.0
Se     1  0.1189261363335  0.1786131630514 -0.4934743914063 1.0
Ag     2  0.4881248371148  0.3731212892533 -0.2686177183446 1.0
Ag     2  0.0118751628852 -0.1268787107467  0.2686177183446 1.0
Ag     2 -0.4881248371148  0.1268787107467  0.2313822816554 1.0
Ag     2 -0.0118751628852 -0.3731212892533 -0.2313822816554 1.0
Ag     2  0.3154248151631 -0.4663694759110  0.1213605719582 1.0
Ag     2  0.1845751848369  0.0336305240890 -0.1213605719582 1.0
Ag     2 -0.3154248151631 -0.0336305240890 -0.3786394280418 1.0
Ag     2 -0.1845751848369  0.4663694759110  0.3786394280418 1.0
END
