TITL 4Ag2Se_TETRA_OPT-200811-111506-5b25c5 -0.0288 222.512502 -4.61185454E+004 0 0 12 (P1) n - 1
REM
REM Run started: Tue, 11 Aug 2020 13:02:26 +0100 in /lustre/scratch/uccabz1/launch_tmp/launcher_2020-08-11-10-15-04-388401
REM CASTEP 20.1 from code version af48c487+ pr-geom-scf-spinfix Tue Jun 2 15:39:59 2020 +0100
REM Functional PBE for solids (2008) Relativity Koelling-Harmon Dispersion off
REM Cut-off 300.0000 eV Grid scale 1.7500 Gmax 15.5288 1/A FBSC none
REM MP grid 4 2 3 Offset 0.000 0.000 0.000 No. kpts 12 Spacing 0.07
REM Total runtime: 6534.53 s
REM Overall efficiency: 80.25 %
REM
REM 4Ag2Se_TETRA_OPT.cell (db6eaae92e6a5f18c152ebab86a92a61)
REM
REM compiler GCC version 4.9.2
REM options -cpp -iprefix /lustre/shared/ucl/apps/gcc/4.9.2/bin/../lib/gcc/x86_64-unknown-linux-gnu/4.9.2/ -mtune=corei7 -march=x86-64 -g -Og
REM COMMAND_LINE
REM seed 2055952184 -1323790449 -341389503 -189621670 1565034005 -529505862 404157511 866360754 783073404 696771064 2001922719 1357531813
REM
REM Se 3|2.1|7|7|9|40:41:32(qc=5)
REM Ag 3|2.2|7|7|9|40U:50:41:42(qc=5)
REM 
CELL 1.54180    4.42020    7.33268    6.96005   90.69179   80.62607   88.94273
LATT -1
SFAC Se Ag 
Se     1  0.5345624849535  0.1859831336510 -0.0464138243503 1.0
Se     1 -0.0927618060002 -0.0285270188230 -0.4927650515759 1.0
Se     1  0.4875675103416  0.4634313563077 -0.5139958901009 1.0
Se     1 -0.1677241174060 -0.3153849688448  0.0446181424197 1.0
Ag     2  0.3004247899566 -0.2575181453754  0.2890570750475 1.0
Ag     2 -0.0858882781945 -0.3683816683331 -0.3444984592738 1.0
Ag     2  0.0207873092708  0.3852623881097  0.2402099829420 1.0
Ag     2 -0.6308097529002 -0.1096205826900 -0.2680796039100 1.0
Ag     2  0.0738968582877  0.2528600839469 -0.2923588307637 1.0
Ag     2  0.3675405890604 -0.4679775263743 -0.1022233446266 1.0
Ag     2  0.0166996869267  0.0210434753618  0.0830606334840 1.0
Ag     2  0.4639571257037  0.1226120730633  0.3359582707080 1.0
END
