TITL 4Ag2Se_TETRA_OPT-200811-100922-27ceba -0.0340 220.170911 -4.61186750E+004 0 0 12 (P1) n - 1
REM
REM Run started: Tue, 11 Aug 2020 12:25:19 +0100 in /lustre/scratch/uccabz1/launch_tmp/launcher_2020-08-11-09-09-21-279323
REM CASTEP 20.1 from code version af48c487+ pr-geom-scf-spinfix Tue Jun 2 15:39:59 2020 +0100
REM Functional PBE for solids (2008) Relativity Koelling-Harmon Dispersion off
REM Cut-off 300.0000 eV Grid scale 1.7500 Gmax 15.5288 1/A FBSC none
REM MP grid 4 3 2 Offset 0.000 0.000 0.000 No. kpts 12 Spacing 0.07
REM Total runtime: 9019.78 s
REM Overall efficiency: 81.75 %
REM
REM 4Ag2Se_TETRA_OPT.cell (db6eaae92e6a5f18c152ebab86a92a61)
REM
REM compiler GCC version 4.9.2
REM options -cpp -iprefix /lustre/shared/ucl/apps/gcc/4.9.2/bin/../lib/gcc/x86_64-unknown-linux-gnu/4.9.2/ -mtune=corei7 -march=x86-64 -g -Og
REM COMMAND_LINE
REM seed 1871137939 -1428778053 1229743196 1848886841 473118916 -422346491 2138113918 -838622458 1224712471 -445510778 7292578 108772375
REM
REM Se 3|2.1|7|7|9|40:41:32(qc=5)
REM Ag 3|2.2|7|7|9|40U:50:41:42(qc=5)
REM 
CELL 1.54180    4.20312    6.73407    7.82872   93.27990   88.78523   84.62569
LATT -1
SFAC Se Ag 
Se     1 -0.2582693108090 -0.5108695112359 -0.4323585271632 1.0
Se     1  0.1544735006832  0.0618613173089 -0.1631290346411 1.0
Se     1  0.0403769401199  0.0524693464721  0.3361862452007 1.0
Se     1 -0.3570586118807  0.4636249687558  0.0405436577265 1.0
Ag     2  0.2285450565416  0.4285567522507  0.3100911865571 1.0
Ag     2  0.1669042304088 -0.2337140184588  0.0721025661548 1.0
Ag     2  0.5381288901612  0.1225711487058 -0.4327652396975 1.0
Ag     2 -0.3102308747608 -0.1959401357700 -0.1853714079438 1.0
Ag     2  0.1924178885399  0.4622756583551 -0.1937212965453 1.0
Ag     2 -0.3205291485621 -0.2656872701204  0.3076848695691 1.0
Ag     2  0.2036777696778 -0.2304405931815 -0.4377063324159 1.0
Ag     2 -0.4275488301199  0.0833196369181  0.1055918131986 1.0
END
