TITL 4Ag2Se_TETRA-200803-162421-74417a -0.0718 245.518717 -4.61162197E+004 0 0 12 (P21) n - 1
REM
REM Run started: Mon, 03 Aug 2020 17:08:31 +0100 in /lustre/scratch/uccabz1/launch_tmp/launcher_2020-08-03-15-24-19-305471
REM CASTEP 20.1 from code version af48c487+ pr-geom-scf-spinfix Tue Jun 2 15:39:59 2020 +0100
REM Functional PBE for solids (2008) Relativity Koelling-Harmon Dispersion off
REM Cut-off 300.0000 eV Grid scale 1.7500 Gmax 15.5288 1/A FBSC none
REM MP grid 3 3 3 Offset 0.000 0.000 0.000 No. kpts 10 Spacing 0.07
REM Total runtime: 2902.71 s
REM Overall efficiency: 90.6667 %
REM
REM 4Ag2Se_TETRA.cell (4020362940262d3df87d4014b41eb05e)
REM
REM compiler GCC version 4.9.2
REM options -cpp -iprefix /lustre/shared/ucl/apps/gcc/4.9.2/bin/../lib/gcc/x86_64-unknown-linux-gnu/4.9.2/ -mtune=corei7 -march=x86-64 -g -Og
REM COMMAND_LINE
REM seed 1779247420 -116567146 821716658 487509142 -1933825266 -297885092 2003669950 893707598 -669096277 -321696515 1095549072 -1053945737
REM
REM Se 3|2.1|7|7|9|40:41:32(qc=5)
REM Ag 3|2.2|7|7|9|40U:50:41:42(qc=5)
REM 
CELL 1.54180    6.28575    6.26485    6.23475   90.17897   90.00000   90.00000
LATT -1
SFAC Se Ag 
Se     1 -0.0168735259127  0.1492745277407  0.4272095368154 1.0
Se     1 -0.5168735259127 -0.1492745277407 -0.4272095368154 1.0
Se     1  0.3220183741929  0.2915886157526 -0.0691465597855 1.0
Se     1 -0.1779816258071 -0.2915886157526  0.0691465597855 1.0
Ag     2  0.0390647553124 -0.4492097377967 -0.2664351899363 1.0
Ag     2 -0.4609352446876  0.4492097377967  0.2664351899363 1.0
Ag     2 -0.3659839512434  0.4567337361489 -0.3174882275449 1.0
Ag     2  0.1340160487566 -0.4567337361489  0.3174882275449 1.0
Ag     2  0.0908748996183 -0.0229295220336 -0.2121298242315 1.0
Ag     2 -0.4091251003817  0.0229295220336  0.2121298242315 1.0
Ag     2 -0.1153640519675  0.2832507618558  0.0449706383362 1.0
Ag     2  0.3846359480325 -0.2832507618558 -0.0449706383362 1.0
END
