TITL 4Ag2Se_TETRA_OPT-200811-090647-383faf -0.2152 221.766076 -4.61186257E+004 0 0 12 (P-1) n - 1
REM
REM Run started: Tue, 11 Aug 2020 11:06:56 +0100 in /lustre/scratch/uccabz1/launch_tmp/launcher_2020-08-11-08-06-44-966648
REM CASTEP 20.1 from code version af48c487+ pr-geom-scf-spinfix Tue Jun 2 15:39:59 2020 +0100
REM Functional PBE for solids (2008) Relativity Koelling-Harmon Dispersion off
REM Cut-off 300.0000 eV Grid scale 1.7500 Gmax 15.5288 1/A FBSC none
REM MP grid 4 3 3 Offset 0.000 0.000 0.000 No. kpts 18 Spacing 0.07
REM Total runtime: 8271.19 s
REM Overall efficiency: 83.3333 %
REM
REM 4Ag2Se_TETRA_OPT.cell (db6eaae92e6a5f18c152ebab86a92a61)
REM
REM compiler GCC version 4.9.2
REM options -cpp -iprefix /lustre/shared/ucl/apps/gcc/4.9.2/bin/../lib/gcc/x86_64-unknown-linux-gnu/4.9.2/ -mtune=corei7 -march=x86-64 -g -Og
REM COMMAND_LINE
REM seed -714820826 1632113985 -738044499 265604345 -722503860 1196770068 -140140695 -312462586 -554292353 1874447418 -1424132114 -73695072
REM
REM Se 3|2.1|7|7|9|40:41:32(qc=5)
REM Ag 3|2.2|7|7|9|40U:50:41:42(qc=5)
REM 
CELL 1.54180    4.37544    7.28443    7.19189   75.40145   89.95865   88.72773
LATT -1
SFAC Se Ag 
Se     1  0.0444223155043  0.1827723698121  0.2097277677478 1.0
Se     1 -0.4571374622406  0.1951673358844 -0.1656016008539 1.0
Se     1 -0.4539966792074 -0.2610929123032  0.2337368316968 1.0
Se     1  0.0466184614703 -0.3608624256483 -0.1830841776415 1.0
Ag     2  0.5553335182426 -0.4742509443410 -0.4135340437006 1.0
Ag     2  0.0356442797100 -0.0854289075962  0.0074839542415 1.0
Ag     2 -0.4643808413387 -0.1325242527421 -0.2738540570167 1.0
Ag     2 -0.4485915482664  0.4656744610191  0.0362203493602 1.0
Ag     2  0.0434396816681  0.1738319076537 -0.3592934562334 1.0
Ag     2  0.0365826132306 -0.1504500884302  0.4600273073383 1.0
Ag     2  0.0566677073724  0.5099897258791  0.3164195549445 1.0
Ag     2 -0.4558315461452  0.2007383308127  0.4023421701171 1.0
END
