TITL 4Ag2Se_TETRA-200803-162818-16f91c -0.5479 239.622842 -4.61180185E+004 0 0 12 (P213) n - 1
REM
REM Run started: Mon, 03 Aug 2020 16:52:14 +0100 in /lustre/scratch/uccabz1/launch_tmp/launcher_2020-08-03-15-28-17-263029
REM CASTEP 20.1 from code version af48c487+ pr-geom-scf-spinfix Tue Jun 2 15:39:59 2020 +0100
REM Functional PBE for solids (2008) Relativity Koelling-Harmon Dispersion off
REM Cut-off 300.0000 eV Grid scale 1.7500 Gmax 15.5288 1/A FBSC none
REM MP grid 3 3 3 Offset 0.000 0.000 0.000 No. kpts 6 Spacing 0.07
REM Total runtime: 1585.07 s
REM Overall efficiency: 64.4167 %
REM
REM 4Ag2Se_TETRA.cell (4020362940262d3df87d4014b41eb05e)
REM
REM compiler GCC version 4.9.2
REM options -cpp -iprefix /lustre/shared/ucl/apps/gcc/4.9.2/bin/../lib/gcc/x86_64-unknown-linux-gnu/4.9.2/ -mtune=corei7 -march=x86-64 -g -Og
REM COMMAND_LINE
REM seed -751051529 -652209038 -675048958 330351175 -1510426844 45513145 -773266780 353580709 -2104161133 -1000541146 -2100417806 294869606
REM
REM Se 3|2.1|7|7|9|40:41:32(qc=5)
REM Ag 3|2.2|7|7|9|40U:50:41:42(qc=5)
REM 
CELL 1.54180    6.21134    6.21134    6.21134   90.37783   90.37783   90.37783
LATT -1
SFAC Se Ag 
Se     1 -0.1055205208660 -0.1676368012694  0.3960604713509 1.0
Se     1  0.3960604713509 -0.1055205208660 -0.1676368012694 1.0
Se     1 -0.1676368012694  0.3960604713509 -0.1055205208660 1.0
Se     1  0.3306854027918  0.3306854027918  0.3306854027918 1.0
Ag     2  0.0720819038358  0.1586535536062 -0.3450004497979 1.0
Ag     2 -0.3450004497979  0.0720819038358  0.1586535536062 1.0
Ag     2  0.1586535536062 -0.3450004497979  0.0720819038358 1.0
Ag     2  0.3995295368968  0.3320435874711 -0.1035893812104 1.0
Ag     2 -0.1035893812104  0.3995295368968  0.3320435874711 1.0
Ag     2  0.3320435874711 -0.1035893812104  0.3995295368968 1.0
Ag     2 -0.1652789856846 -0.1652789856846 -0.1652789856846 1.0
Ag     2 -0.4273732171243 -0.4273732171243 -0.4273732171243 1.0
END
