TITL 4Ag2Se_TETRA_OPT-200811-114059-9a8574 -0.0291 233.618967 -4.61183724E+004 0 0 12 (P2) n - 1
REM
REM Run started: Tue, 11 Aug 2020 12:57:20 +0100 in /lustre/scratch/uccabz1/launch_tmp/launcher_2020-08-11-10-40-57-819138
REM CASTEP 20.1 from code version af48c487+ pr-geom-scf-spinfix Tue Jun 2 15:39:59 2020 +0100
REM Functional PBE for solids (2008) Relativity Koelling-Harmon Dispersion off
REM Cut-off 300.0000 eV Grid scale 1.7500 Gmax 15.5288 1/A FBSC none
REM MP grid 3 3 3 Offset 0.000 0.000 0.000 No. kpts 10 Spacing 0.07
REM Total runtime: 4740.85 s
REM Overall efficiency: 90.3636 %
REM
REM 4Ag2Se_TETRA_OPT.cell (db6eaae92e6a5f18c152ebab86a92a61)
REM
REM compiler GCC version 4.9.2
REM options -cpp -iprefix /lustre/shared/ucl/apps/gcc/4.9.2/bin/../lib/gcc/x86_64-unknown-linux-gnu/4.9.2/ -mtune=corei7 -march=x86-64 -g -Og
REM COMMAND_LINE
REM seed 876158614 -2073524301 70593453 -1378509966 -63526699 -1101178921 1900985313 -1749157059 224891612 1383650239 -381353054 1853785031
REM
REM Se 3|2.1|7|7|9|40:41:32(qc=5)
REM Ag 3|2.2|7|7|9|40U:50:41:42(qc=5)
REM 
CELL 1.54180    5.39867    6.49183    6.66607   90.00000   90.00000   90.48383
LATT -1
SFAC Se Ag 
Se     1 -0.2041692389043  0.2367194723056  0.1135872718798 1.0
Se     1  0.2041692389043 -0.2367194723056  0.1135872718798 1.0
Se     1  0.3187408925295  0.2486532413543 -0.3480237092245 1.0
Se     1 -0.3187408925295 -0.2486532413543 -0.3480237092245 1.0
Ag     2  0.2310740661738  0.3865712266419  0.2852714069211 1.0
Ag     2 -0.2310740661738 -0.3865712266419  0.2852714069211 1.0
Ag     2  0.1839842826467 -0.3443505392524 -0.3739357446277 1.0
Ag     2 -0.1839842826467  0.3443505392524 -0.3739357446277 1.0
Ag     2  0.0000000000000  0.0000000000000 -0.1587320453573 1.0
Ag     2  0.0000000000000  0.0000000000000 -0.5875136343253 1.0
Ag     2  0.5000000000000  0.0000000000000  0.3254131801182 1.0
Ag     2  0.5000000000000 -0.5000000000000 -0.0551790503330 1.0
END
