TITL 4Ag2Se_TETRA-200803-164454-2b4af8 -0.0244 245.630623 -4.61164423E+004 0 0 12 (C2) n - 1
REM
REM Run started: Mon, 03 Aug 2020 17:28:30 +0100 in /lustre/scratch/uccabz1/launch_tmp/launcher_2020-08-03-15-44-52-868067
REM CASTEP 20.1 from code version af48c487+ pr-geom-scf-spinfix Tue Jun 2 15:39:59 2020 +0100
REM Functional PBE for solids (2008) Relativity Koelling-Harmon Dispersion off
REM Cut-off 300.0000 eV Grid scale 1.7500 Gmax 15.5288 1/A FBSC none
REM MP grid 3 3 3 Offset 0.000 0.000 0.000 No. kpts 10 Spacing 0.07
REM Total runtime: 2886.71 s
REM Overall efficiency: 91.0833 %
REM
REM 4Ag2Se_TETRA.cell (4020362940262d3df87d4014b41eb05e)
REM
REM compiler GCC version 4.9.2
REM options -cpp -iprefix /lustre/shared/ucl/apps/gcc/4.9.2/bin/../lib/gcc/x86_64-unknown-linux-gnu/4.9.2/ -mtune=corei7 -march=x86-64 -g -Og
REM COMMAND_LINE
REM seed 515759463 1631907092 -594316594 1720873383 141997487 -877155461 844456015 -1541167574 -250098787 -1827837964 -757412546 602629171
REM
REM Se 3|2.1|7|7|9|40:41:32(qc=5)
REM Ag 3|2.2|7|7|9|40U:50:41:42(qc=5)
REM 
CELL 1.54180    6.09196    6.62500    6.09196   90.07387   87.49180   90.07387
LATT -1
SFAC Se Ag 
Se     1 -0.2972530628099  0.2484178777642 -0.4877396974108 1.0
Se     1  0.4877396974108 -0.2484178777642  0.2972530628099 1.0
Se     1 -0.0222600258655 -0.2486283277179 -0.3027451648770 1.0
Se     1  0.3027451648770  0.2486283277179  0.0222600258655 1.0
Ag     2 -0.3949902833806  0.0219213174998 -0.1541610112350 1.0
Ag     2  0.1541610112350 -0.0219213174998  0.3949902833806 1.0
Ag     2 -0.1387426462007 -0.2117076571584  0.1138552362494 1.0
Ag     2 -0.1138552362494  0.2117076571584  0.1387426462007 1.0
Ag     2  0.3107333372618 -0.2933308785376 -0.0769860379094 1.0
Ag     2  0.0769860379094  0.2933308785376 -0.3107333372618 1.0
Ag     2 -0.3113876202975  0.4814325716130 -0.1407337261095 1.0
Ag     2  0.1407337261095 -0.4814325716130  0.3113876202975 1.0
END
