TITL 4Ag2SE-200803-155106-7ec08f -0.0164 225.294925 -4.61174781E+004 0 0 12 (C2/m) n - 1
REM
REM Run started: Mon, 03 Aug 2020 16:06:42 +0100 in /lustre/scratch/uccabz1/launch_tmp/launcher_2020-08-03-14-51-05-137745
REM CASTEP 20.1 from code version af48c487+ pr-geom-scf-spinfix Tue Jun 2 15:39:59 2020 +0100
REM Functional PBE for solids (2008) Relativity Koelling-Harmon Dispersion off
REM Cut-off 300.0000 eV Grid scale 1.7500 Gmax 15.5288 1/A FBSC none
REM MP grid 4 2 2 Offset 0.000 0.000 0.000 No. kpts 4 Spacing 0.07
REM Total runtime: 1047.04 s
REM Overall efficiency: 71.3333 %
REM
REM 4Ag2SE.cell (6404a18c6b5dc90313b5c56acf317f23)
REM
REM compiler GCC version 4.9.2
REM options -cpp -iprefix /lustre/shared/ucl/apps/gcc/4.9.2/bin/../lib/gcc/x86_64-unknown-linux-gnu/4.9.2/ -mtune=corei7 -march=x86-64 -g -Og
REM COMMAND_LINE
REM seed -1574678538 -1553512079 -1840297042 -1705511901 1678514011 80406001 -504767899 1805807964 1874482091 -1266145080 693459137 358131678
REM
REM Se 3|2.1|7|7|9|40:41:32(qc=5)
REM Ag 3|2.2|7|7|9|40U:50:41:42(qc=5)
REM 
CELL 1.54180    4.14863    7.29224    7.45218   87.87689   90.00000   90.00000
LATT -1
SFAC Se Ag 
Se     1 -0.5000000000000 -0.4593846343100  0.2640085202528 1.0
Se     1 -0.0000000000000 -0.0406153656900  0.2359914797472 1.0
Se     1  0.5000000000000  0.4593846343100 -0.2640085202528 1.0
Se     1 -0.0000000000000  0.0406153656900 -0.2359914797472 1.0
Ag     2 -0.0000000000000 -0.3151456748896  0.4653143579978 1.0
Ag     2  0.5000000000000 -0.1848543251104  0.0346856420022 1.0
Ag     2 -0.0000000000000  0.3151456748896 -0.4653143579978 1.0
Ag     2 -0.5000000000000  0.1848543251104 -0.0346856420022 1.0
Ag     2 -0.0000000000000 -0.3543786153430 -0.1494240444941 1.0
Ag     2  0.5000000000000 -0.1456213846569 -0.3505759555059 1.0
Ag     2 -0.0000000000000  0.3543786153430  0.1494240444941 1.0
Ag     2 -0.5000000000000  0.1456213846569  0.3505759555059 1.0
END
