TITL 4Ag2SE-200803-160704-c8ea60 -0.0775 227.938729 -4.61185009E+004 0 0 12 (P-43m) n - 1
REM
REM Run started: Mon, 03 Aug 2020 16:23:01 +0100 in /lustre/scratch/uccabz1/launch_tmp/launcher_2020-08-03-15-07-01-987346
REM CASTEP 20.1 from code version af48c487+ pr-geom-scf-spinfix Tue Jun 2 15:39:59 2020 +0100
REM Functional PBE for solids (2008) Relativity Koelling-Harmon Dispersion off
REM Cut-off 300.0000 eV Grid scale 1.7500 Gmax 15.5288 1/A FBSC none
REM MP grid 3 3 3 Offset 0.000 0.000 0.000 No. kpts 6 Spacing 0.07
REM Total runtime: 1051.95 s
REM Overall efficiency: 64 %
REM
REM 4Ag2SE.cell (6404a18c6b5dc90313b5c56acf317f23)
REM
REM compiler GCC version 4.9.2
REM options -cpp -iprefix /lustre/shared/ucl/apps/gcc/4.9.2/bin/../lib/gcc/x86_64-unknown-linux-gnu/4.9.2/ -mtune=corei7 -march=x86-64 -g -Og
REM COMMAND_LINE
REM seed -1418720441 -1854528327 -1264089699 254581410 -1011255502 962264666 77849388 -1056089101 1942019629 -93510120 -849493674 -1129126059
REM
REM Se 3|2.1|7|7|9|40:41:32(qc=5)
REM Ag 3|2.2|7|7|9|40U:50:41:42(qc=5)
REM 
CELL 1.54180    6.10871    6.10871    6.10871   89.60900   89.60900   89.60900
LATT -1
SFAC Se Ag 
Se     1 -0.2952174464508 -0.2957518993856  0.1711635099562 1.0
Se     1  0.1711635099562 -0.2952174464508 -0.2957518993856 1.0
Se     1 -0.2957518993856  0.1711635099562 -0.2952174464508 1.0
Se     1  0.1714192906321  0.1714192906321  0.1714192906321 1.0
Ag     2 -0.2691596036131  0.1508776254632  0.1482426903480 1.0
Ag     2  0.1482426903480 -0.2691596036131  0.1508776254632 1.0
Ag     2  0.1508776254632  0.1482426903480 -0.2691596036131 1.0
Ag     2 -0.0632668441870  0.4382943921104  0.4406252402570 1.0
Ag     2  0.4406252402570 -0.0632668441870  0.4382943921104 1.0
Ag     2  0.4382943921104  0.4406252402570 -0.0632668441870 1.0
Ag     2 -0.2691935264570 -0.2691935264570 -0.2691935264570 1.0
Ag     2  0.4345502713268  0.4345502713268  0.4345502713268 1.0
END
