TITL 4Ag2Se_TETRA-200803-162752-67d438 -0.0959 244.491638 -4.61176499E+004 0 0 12 (R3) n - 1
REM
REM Run started: Mon, 03 Aug 2020 16:56:18 +0100 in /lustre/scratch/uccabz1/launch_tmp/launcher_2020-08-03-15-27-51-343015
REM CASTEP 20.1 from code version af48c487+ pr-geom-scf-spinfix Tue Jun 2 15:39:59 2020 +0100
REM Functional PBE for solids (2008) Relativity Koelling-Harmon Dispersion off
REM Cut-off 300.0000 eV Grid scale 1.7500 Gmax 15.5288 1/A FBSC none
REM MP grid 3 3 3 Offset 0.000 0.000 0.000 No. kpts 6 Spacing 0.07
REM Total runtime: 1862.72 s
REM Overall efficiency: 64.9167 %
REM
REM 4Ag2Se_TETRA.cell (4020362940262d3df87d4014b41eb05e)
REM
REM compiler GCC version 4.9.2
REM options -cpp -iprefix /lustre/shared/ucl/apps/gcc/4.9.2/bin/../lib/gcc/x86_64-unknown-linux-gnu/4.9.2/ -mtune=corei7 -march=x86-64 -g -Og
REM COMMAND_LINE
REM seed 2027077663 1877648482 508465542 -1349442435 -44412014 881945572 379574066 -960571984 1566023534 1537833396 -1933674912 1745234746
REM
REM Se 3|2.1|7|7|9|40:41:32(qc=5)
REM Ag 3|2.2|7|7|9|40U:50:41:42(qc=5)
REM 
CELL 1.54180    6.25300    6.25300    6.25300   89.94254   89.94254   89.94254
LATT -1
SFAC Se Ag 
Se     1  0.0823913136230  0.1601531826321 -0.4209652654817 1.0
Se     1 -0.4209652654817  0.0823913136230  0.1601531826321 1.0
Se     1  0.1601531826321 -0.4209652654817  0.0823913136230 1.0
Se     1 -0.3678657088634 -0.3678657088634 -0.3678657088634 1.0
Ag     2  0.3508872428451 -0.0838926466249 -0.2394995236741 1.0
Ag     2 -0.2394995236741  0.3508872428451 -0.0838926466249 1.0
Ag     2 -0.0838926466249 -0.2394995236741  0.3508872428451 1.0
Ag     2 -0.3168743439838  0.1089831504571 -0.4356304088886 1.0
Ag     2 -0.4356304088886 -0.3168743439838  0.1089831504571 1.0
Ag     2  0.1089831504571 -0.4356304088886 -0.3168743439838 1.0
Ag     2  0.1349811659874  0.1349811659874  0.1349811659874 1.0
Ag     2  0.3938786419718  0.3938786419718  0.3938786419718 1.0
END
