TITL 4Ag2Se_TETRA_OPT-200811-100624-f63e4e -0.2412 229.190101 -4.61183698E+004 0 0 12 (P1) n - 1
REM
REM Run started: Tue, 11 Aug 2020 12:14:16 +0100 in /lustre/scratch/uccabz1/launch_tmp/launcher_2020-08-11-09-06-22-995559
REM CASTEP 20.1 from code version af48c487+ pr-geom-scf-spinfix Tue Jun 2 15:39:59 2020 +0100
REM Functional PBE for solids (2008) Relativity Koelling-Harmon Dispersion off
REM Cut-off 300.0000 eV Grid scale 1.7500 Gmax 15.5288 1/A FBSC none
REM MP grid 3 3 3 Offset 0.000 0.000 0.000 No. kpts 14 Spacing 0.07
REM Total runtime: 8721.31 s
REM Overall efficiency: 95.1667 %
REM
REM 4Ag2Se_TETRA_OPT.cell (db6eaae92e6a5f18c152ebab86a92a61)
REM
REM compiler GCC version 4.9.2
REM options -cpp -iprefix /lustre/shared/ucl/apps/gcc/4.9.2/bin/../lib/gcc/x86_64-unknown-linux-gnu/4.9.2/ -mtune=corei7 -march=x86-64 -g -Og
REM COMMAND_LINE
REM seed 640782521 -1904543796 -1016988180 985323987 -1755776955 -1053463609 -814420046 1111927095 -1118762590 -1037580534 219967347 1082610520
REM
REM Se 3|2.1|7|7|9|40:41:32(qc=5)
REM Ag 3|2.2|7|7|9|40U:50:41:42(qc=5)
REM 
CELL 1.54180    5.08723    7.10224    6.36592   86.82699   89.90604   86.36361
LATT -1
SFAC Se Ag 
Se     1 -0.1094870121159 -0.0444162854543 -0.4555140830192 1.0
Se     1  0.3362138344194  0.0193232107585  0.0482164127386 1.0
Se     1 -0.2183014963166 -0.3784493959702  0.1773345736441 1.0
Se     1  0.2635513121847  0.5221055505621 -0.4171258216944 1.0
Ag     2 -0.3936578420765  0.2973619825155  0.1399997267219 1.0
Ag     2 -0.3887050557156  0.2511694259681 -0.3889960145761 1.0
Ag     2 -0.2936363211673 -0.3717948159047 -0.2430926643755 1.0
Ag     2  0.2732678363968 -0.3646615643783  0.0749632272755 1.0
Ag     2  0.0620121318397  0.3208724254322 -0.1141901223728 1.0
Ag     2 -0.1608752092121 -0.0356030153634 -0.0460319338199 1.0
Ag     2 -0.5963099619966 -0.1211135600577  0.4531800961511 1.0
Ag     2  0.1078563837601  0.2585930418921  0.3429493033267 1.0
END
