TITL 4Ag2Se_TETRA-200803-162709-907e9a -0.0323 243.825176 -4.61173716E+004 0 0 12 (P2) n - 1
REM
REM Run started: Mon, 03 Aug 2020 17:11:32 +0100 in /lustre/scratch/uccabz1/launch_tmp/launcher_2020-08-03-15-27-07-563374
REM CASTEP 20.1 from code version af48c487+ pr-geom-scf-spinfix Tue Jun 2 15:39:59 2020 +0100
REM Functional PBE for solids (2008) Relativity Koelling-Harmon Dispersion off
REM Cut-off 300.0000 eV Grid scale 1.7500 Gmax 15.5288 1/A FBSC none
REM MP grid 3 3 3 Offset 0.000 0.000 0.000 No. kpts 10 Spacing 0.07
REM Total runtime: 3000 s
REM Overall efficiency: 90.75 %
REM
REM 4Ag2Se_TETRA.cell (4020362940262d3df87d4014b41eb05e)
REM
REM compiler GCC version 4.9.2
REM options -cpp -iprefix /lustre/shared/ucl/apps/gcc/4.9.2/bin/../lib/gcc/x86_64-unknown-linux-gnu/4.9.2/ -mtune=corei7 -march=x86-64 -g -Og
REM COMMAND_LINE
REM seed -2136491458 -484821052 73409698 148214800 442659373 -1904232735 528829958 -2134323112 -758730744 -1997240548 1600028661 -649467805
REM
REM Se 3|2.1|7|7|9|40:41:32(qc=5)
REM Ag 3|2.2|7|7|9|40U:50:41:42(qc=5)
REM 
CELL 1.54180    6.48882    6.45966    5.89092   99.08263   90.00000   90.00000
LATT -1
SFAC Se Ag 
Se     1  0.0216754324479  0.2932924584944  0.2079456097650 1.0
Se     1  0.0216754324479 -0.2932924584944 -0.2079456097650 1.0
Se     1 -0.4504582200824 -0.2823141185686  0.3016129668994 1.0
Se     1 -0.4504582200824  0.2823141185686 -0.3016129668994 1.0
Ag     2  0.1603261087449  0.3300516533125 -0.3774529798653 1.0
Ag     2  0.1603261087449 -0.3300516533125  0.3774529798653 1.0
Ag     2 -0.1285328153507  0.0853238000429 -0.2033447056979 1.0
Ag     2 -0.1285328153507 -0.0853238000429  0.2033447056979 1.0
Ag     2  0.3210152911830  0.0317484870823  0.2386693354315 1.0
Ag     2  0.3210152911830 -0.0317484870823 -0.2386693354315 1.0
Ag     2 -0.3839167969426 -0.3177692073825 -0.1452543321383 1.0
Ag     2 -0.3839167969426  0.3177692073825  0.1452543321383 1.0
END
