TITL 4Ag2Se_TETRA_OPT-200811-115215-8d4885 0.0055 219.301057 -4.61184175E+004 0 0 12 (P1) n - 1
REM
REM Run started: Tue, 11 Aug 2020 13:23:54 +0100 in /lustre/scratch/uccabz1/launch_tmp/launcher_2020-08-11-10-52-13-528393
REM CASTEP 20.1 from code version af48c487+ pr-geom-scf-spinfix Tue Jun 2 15:39:59 2020 +0100
REM Functional PBE for solids (2008) Relativity Koelling-Harmon Dispersion off
REM Cut-off 300.0000 eV Grid scale 1.7500 Gmax 15.5288 1/A FBSC none
REM MP grid 3 3 3 Offset 0.000 0.000 0.000 No. kpts 14 Spacing 0.07
REM Total runtime: 5986.63 s
REM Overall efficiency: 95 %
REM
REM 4Ag2Se_TETRA_OPT.cell (db6eaae92e6a5f18c152ebab86a92a61)
REM
REM compiler GCC version 4.9.2
REM options -cpp -iprefix /lustre/shared/ucl/apps/gcc/4.9.2/bin/../lib/gcc/x86_64-unknown-linux-gnu/4.9.2/ -mtune=corei7 -march=x86-64 -g -Og
REM COMMAND_LINE
REM seed -740363730 -1616785042 -1064358803 -1087860382 -74066343 994458653 619996549 -137180955 -1275051938 310394923 -776321659 2066634515
REM
REM Se 3|2.1|7|7|9|40:41:32(qc=5)
REM Ag 3|2.2|7|7|9|40U:50:41:42(qc=5)
REM 
CELL 1.54180    5.37993    6.79866    6.04913   96.56416   87.14353   92.93166
LATT -1
SFAC Se Ag 
Se     1  0.3169981253555 -0.2842747773208 -0.2464409666760 1.0
Se     1  0.3044468254202  0.0831520157802  0.1740457779894 1.0
Se     1 -0.0934542048617  0.1499750999626 -0.2738968762944 1.0
Se     1 -0.1631584633548  0.5139000440051  0.1435545765114 1.0
Ag     2  0.4174402521260  0.0992907504967 -0.3507330937450 1.0
Ag     2 -0.1847912953341 -0.1720514041934 -0.0774619768308 1.0
Ag     2  0.2020624448356  0.4150169835299  0.4518287665032 1.0
Ag     2 -0.3053573457987 -0.5219796584808 -0.3872287308231 1.0
Ag     2 -0.2162687214569  0.1352657431208  0.2766357576735 1.0
Ag     2  0.3398237462529  0.4143995349477 -0.0141537265276 1.0
Ag     2 -0.0124811446719 -0.1916187553498  0.4450939872240 1.0
Ag     2 -0.5073963185120 -0.2415204764981  0.3108874049954 1.0
END
