TITL 4Ag2Se_TETRA_OPT-200811-104621-fe6481 -0.0359 232.706022 -4.61180153E+004 0 0 12 (C2) n - 1
REM
REM Run started: Tue, 11 Aug 2020 11:44:21 +0100 in /lustre/scratch/uccabz1/launch_tmp/launcher_2020-08-11-09-46-18-897492
REM CASTEP 20.1 from code version af48c487+ pr-geom-scf-spinfix Tue Jun 2 15:39:59 2020 +0100
REM Functional PBE for solids (2008) Relativity Koelling-Harmon Dispersion off
REM Cut-off 300.0000 eV Grid scale 1.7500 Gmax 15.5288 1/A FBSC none
REM MP grid 3 3 3 Offset 0.000 0.000 0.000 No. kpts 10 Spacing 0.07
REM Total runtime: 3614.96 s
REM Overall efficiency: 93.375 %
REM
REM 4Ag2Se_TETRA_OPT.cell (db6eaae92e6a5f18c152ebab86a92a61)
REM
REM compiler GCC version 4.9.2
REM options -cpp -iprefix /lustre/shared/ucl/apps/gcc/4.9.2/bin/../lib/gcc/x86_64-unknown-linux-gnu/4.9.2/ -mtune=corei7 -march=x86-64 -g -Og
REM COMMAND_LINE
REM seed -1651535821 -1668931580 -2090649969 -585463689 1715722944 -28960161 -1308278724 -1078613112 936921594 -36094009 2145114145 931354021
REM
REM Se 3|2.1|7|7|9|40:41:32(qc=5)
REM Ag 3|2.2|7|7|9|40U:50:41:42(qc=5)
REM 
CELL 1.54180    5.45154    6.55417    6.55417   95.46016   87.70294   87.70294
LATT -1
SFAC Se Ag 
Se     1  0.3949787368933 -0.1898372566660 -0.1990611178848 1.0
Se     1 -0.3949787368933  0.1990611178848  0.1898372566660 1.0
Se     1  0.0000000000000  0.2807446941766 -0.2807446941766 1.0
Se     1  0.0000000000000 -0.2483446531386  0.2483446531386 1.0
Ag     2 -0.2953239285777 -0.4194637917963 -0.0262317549187 1.0
Ag     2  0.2953239285777  0.0262317549187  0.4194637917963 1.0
Ag     2  0.2517519425110 -0.4464782000433 -0.4821443577900 1.0
Ag     2 -0.2517519425110  0.4821443577900  0.4464782000433 1.0
Ag     2 -0.2168123335948 -0.1015044198222 -0.4066039779891 1.0
Ag     2  0.2168123335948  0.4066039779891  0.1015044198222 1.0
Ag     2 -0.5000000000000  0.2452185265100 -0.2452185265100 1.0
Ag     2  0.0000000000000  0.0143178921971 -0.0143178921971 1.0
END
