TITL 4Ag2SE-200803-155116-cb3834 -0.0214 227.082466 -4.61184759E+004 0 0 12 (R3m) n - 1
REM
REM Run started: Mon, 03 Aug 2020 16:15:19 +0100 in /lustre/scratch/uccabz1/launch_tmp/launcher_2020-08-03-14-51-14-006030
REM CASTEP 20.1 from code version af48c487+ pr-geom-scf-spinfix Tue Jun 2 15:39:59 2020 +0100
REM Functional PBE for solids (2008) Relativity Koelling-Harmon Dispersion off
REM Cut-off 300.0000 eV Grid scale 1.7500 Gmax 15.5288 1/A FBSC none
REM MP grid 3 3 3 Offset 0.000 0.000 0.000 No. kpts 6 Spacing 0.07
REM Total runtime: 1478.1 s
REM Overall efficiency: 62 %
REM
REM 4Ag2SE.cell (6404a18c6b5dc90313b5c56acf317f23)
REM
REM compiler GCC version 4.9.2
REM options -cpp -iprefix /lustre/shared/ucl/apps/gcc/4.9.2/bin/../lib/gcc/x86_64-unknown-linux-gnu/4.9.2/ -mtune=corei7 -march=x86-64 -g -Og
REM COMMAND_LINE
REM seed 1796455590 -1229601707 463508179 -182060764 -678468082 109938430 421716528 -97158743 1815954951 -626316276 -965764897 -232888732
REM
REM Se 3|2.1|7|7|9|40:41:32(qc=5)
REM Ag 3|2.2|7|7|9|40U:50:41:42(qc=5)
REM 
CELL 1.54180    6.10095    6.10095    6.10095   90.20956   90.20956   90.20956
LATT -1
SFAC Se Ag 
Se     1  0.0664150638790 -0.4639945043584  0.0690383225276 1.0
Se     1 -0.4639945043584  0.0690383225276  0.0664150638790 1.0
Se     1  0.0690383225276  0.0664150638790 -0.4639945043584 1.0
Se     1 -0.4699355725110 -0.4699355725110 -0.4699355725110 1.0
Ag     2 -0.2004503520169  0.2981613345623 -0.2002093142180 1.0
Ag     2  0.2981613345623 -0.2002093142180 -0.2004503520169 1.0
Ag     2 -0.2002093142180 -0.2004503520169  0.2981613345623 1.0
Ag     2  0.5086922430885 -0.4886379784990  0.0856243416478 1.0
Ag     2 -0.4886379784990  0.0856243416478  0.5086922430885 1.0
Ag     2  0.0856243416478  0.5086922430885 -0.4886379784990 1.0
Ag     2 -0.2037661992023 -0.2037661992023 -0.2037661992024 1.0
Ag     2  0.0936802151006  0.0936802151006  0.0936802151006 1.0
END
