TITL 4Ag2SE-200803-160704-959511 0.0345 210.137118 -4.61181923E+004 0 0 12 (P2/m) n - 1
REM
REM Run started: Mon, 03 Aug 2020 16:46:49 +0100 in /lustre/scratch/uccabz1/launch_tmp/launcher_2020-08-03-15-07-02-213970
REM CASTEP 20.1 from code version af48c487+ pr-geom-scf-spinfix Tue Jun 2 15:39:59 2020 +0100
REM Functional PBE for solids (2008) Relativity Koelling-Harmon Dispersion off
REM Cut-off 300.0000 eV Grid scale 1.7500 Gmax 15.5288 1/A FBSC none
REM MP grid 4 3 3 Offset 0.000 0.000 0.000 No. kpts 12 Spacing 0.07
REM Total runtime: 2522.99 s
REM Overall efficiency: 77.8571 %
REM
REM 4Ag2SE.cell (6404a18c6b5dc90313b5c56acf317f23)
REM
REM compiler GCC version 4.9.2
REM options -cpp -iprefix /lustre/shared/ucl/apps/gcc/4.9.2/bin/../lib/gcc/x86_64-unknown-linux-gnu/4.9.2/ -mtune=corei7 -march=x86-64 -g -Og
REM COMMAND_LINE
REM seed 246606907 -1009050195 1781630187 -208804908 1730438808 -828070314 -28158405 -1213982333 924928968 -959293375 1812363626 498518186
REM
REM Se 3|2.1|7|7|9|40:41:32(qc=5)
REM Ag 3|2.2|7|7|9|40U:50:41:42(qc=5)
REM 
CELL 1.54180    4.15048    7.78388    7.78388   60.17741   76.54823   76.54823
LATT -1
SFAC Se Ag 
Se     1 -0.1634078771042  0.3992852497052  0.4010306970864 1.0
Se     1  0.1634078771042 -0.4010306970864 -0.3992852497052 1.0
Se     1  0.1629185496122  0.0994923630241  0.1017623660315 1.0
Se     1 -0.1629185496122 -0.1017623660315 -0.0994923630241 1.0
Ag     2 -0.3227395928247 -0.1700303719032  0.3296375327595 1.0
Ag     2  0.3227395928247 -0.3296375327595  0.1700303719032 1.0
Ag     2 -0.0006048347043 -0.0009259922263 -0.4989882112389 1.0
Ag     2  0.0006048347043  0.4989882112389  0.0009259922263 1.0
Ag     2  0.4979277867381  0.2501784427217  0.2524400427181 1.0
Ag     2 -0.4979277867381 -0.2524400427181 -0.2501784427217 1.0
Ag     2  0.3220672731329  0.1680696074905 -0.3273314285446 1.0
Ag     2 -0.3220672731329  0.3273314285446 -0.1680696074905 1.0
END
