TITL 4Ag2Se_TETRA_OPT-200811-112123-20391a 0.0649 215.832567 -4.61181774E+004 0 0 12 (P21) n - 1
REM
REM Run started: Tue, 11 Aug 2020 12:23:29 +0100 in /lustre/scratch/uccabz1/launch_tmp/launcher_2020-08-11-10-21-22-136779
REM CASTEP 20.1 from code version af48c487+ pr-geom-scf-spinfix Tue Jun 2 15:39:59 2020 +0100
REM Functional PBE for solids (2008) Relativity Koelling-Harmon Dispersion off
REM Cut-off 300.0000 eV Grid scale 1.7500 Gmax 15.5288 1/A FBSC none
REM MP grid 3 3 2 Offset 0.000 0.000 0.000 No. kpts 5 Spacing 0.07
REM Total runtime: 4083.29 s
REM Overall efficiency: 81 %
REM
REM 4Ag2Se_TETRA_OPT.cell (db6eaae92e6a5f18c152ebab86a92a61)
REM
REM compiler GCC version 4.9.2
REM options -cpp -iprefix /lustre/shared/ucl/apps/gcc/4.9.2/bin/../lib/gcc/x86_64-unknown-linux-gnu/4.9.2/ -mtune=corei7 -march=x86-64 -g -Og
REM COMMAND_LINE
REM seed 304631314 113505683 1867049164 -204278670 637093242 400224658 975777433 -170104513 -1230715427 1674400314 -135831240 -534819954
REM
REM Se 3|2.1|7|7|9|40:41:32(qc=5)
REM Ag 3|2.2|7|7|9|40U:50:41:42(qc=5)
REM 
CELL 1.54180    5.04358    5.80796    7.46827   90.00000   90.00000   80.60447
LATT -1
SFAC Se Ag 
Se     1  0.2616131706310 -0.0360759935160  0.2064026182469 1.0
Se     1 -0.2616131706310  0.0360759935160 -0.2935973817531 1.0
Se     1  0.1971933761020 -0.5171899340087 -0.1552392048544 1.0
Se     1 -0.1971933761020  0.5171899340087  0.3447607951456 1.0
Ag     2  0.2363725354353  0.2333732325303 -0.4720729410722 1.0
Ag     2 -0.2363725354353 -0.2333732325303  0.0279270589278 1.0
Ag     2 -0.3294693374594 -0.4494221094428 -0.3042538775323 1.0
Ag     2  0.3294693374594  0.4494221094428  0.1957461224677 1.0
Ag     2  0.2648056906608 -0.0501630625974 -0.1574750455316 1.0
Ag     2 -0.2648056906608  0.0501630625974  0.3425249544684 1.0
Ag     2  0.1832423725630 -0.2624775040837 -0.4852432492564 1.0
Ag     2 -0.1832423725630  0.2624775040837  0.0147567507436 1.0
END
