TITL 4Ag2Se_TETRA_OPT-200811-110209-f3888b 0.0712 231.634828 -4.61183278E+004 0 0 12 (P1) n - 1
REM
REM Run started: Tue, 11 Aug 2020 12:54:03 +0100 in /lustre/scratch/uccabz1/launch_tmp/launcher_2020-08-11-10-02-07-675554
REM CASTEP 20.1 from code version af48c487+ pr-geom-scf-spinfix Tue Jun 2 15:39:59 2020 +0100
REM Functional PBE for solids (2008) Relativity Koelling-Harmon Dispersion off
REM Cut-off 300.0000 eV Grid scale 1.7500 Gmax 15.5288 1/A FBSC none
REM MP grid 4 2 3 Offset 0.000 0.000 0.000 No. kpts 12 Spacing 0.07
REM Total runtime: 6813.73 s
REM Overall efficiency: 79.1667 %
REM
REM 4Ag2Se_TETRA_OPT.cell (db6eaae92e6a5f18c152ebab86a92a61)
REM
REM compiler GCC version 4.9.2
REM options -cpp -iprefix /lustre/shared/ucl/apps/gcc/4.9.2/bin/../lib/gcc/x86_64-unknown-linux-gnu/4.9.2/ -mtune=corei7 -march=x86-64 -g -Og
REM COMMAND_LINE
REM seed -462099642 -724379630 -1544935979 -818542341 -862719488 -683570982 1255533471 -650023816 460944319 531573182 -1040556025 1148650562
REM
REM Se 3|2.1|7|7|9|40:41:32(qc=5)
REM Ag 3|2.2|7|7|9|40U:50:41:42(qc=5)
REM 
CELL 1.54180    4.53344    7.38728    7.16528   82.57736  102.22717   86.63055
LATT -1
SFAC Se Ag 
Se     1  0.0054348385223 -0.1218859641864 -0.5062779988477 1.0
Se     1 -0.2582399979030 -0.3146649007539  0.0398446867222 1.0
Se     1 -0.4322383454568  0.3375489868772 -0.4922662283404 1.0
Se     1  0.2774758248966  0.1199545908942  0.1076502193285 1.0
Ag     2  0.0026503452143 -0.4731051529377  0.4059546427718 1.0
Ag     2  0.2549366658970  0.4855233384008  0.0743283291851 1.0
Ag     2 -0.2791485152501  0.2622492888488 -0.0186972503004 1.0
Ag     2 -0.5553056986168 -0.2258225660735  0.3136101595707 1.0
Ag     2  0.4589246482794 -0.4061689939686 -0.2856080633942 1.0
Ag     2  0.1295557773044 -0.1234140302682 -0.1259706660262 1.0
Ag     2  0.5423501795017 -0.0096218493474 -0.3560226763017 1.0
Ag     2  0.1276279776108  0.2589206525147 -0.2653243543675 1.0
END
