TITL 4Ag2Se_TETRA-200803-162308-34eafd -0.1319 251.105552 -4.61172896E+004 0 0 12 (R3) n - 1
REM
REM Run started: Mon, 03 Aug 2020 16:48:07 +0100 in /lustre/scratch/uccabz1/launch_tmp/launcher_2020-08-03-15-23-06-736736
REM CASTEP 20.1 from code version af48c487+ pr-geom-scf-spinfix Tue Jun 2 15:39:59 2020 +0100
REM Functional PBE for solids (2008) Relativity Koelling-Harmon Dispersion off
REM Cut-off 300.0000 eV Grid scale 1.7500 Gmax 15.5288 1/A FBSC none
REM MP grid 3 3 3 Offset 0.000 0.000 0.000 No. kpts 6 Spacing 0.07
REM Total runtime: 1655.71 s
REM Overall efficiency: 64.6667 %
REM
REM 4Ag2Se_TETRA.cell (4020362940262d3df87d4014b41eb05e)
REM
REM compiler GCC version 4.9.2
REM options -cpp -iprefix /lustre/shared/ucl/apps/gcc/4.9.2/bin/../lib/gcc/x86_64-unknown-linux-gnu/4.9.2/ -mtune=corei7 -march=x86-64 -g -Og
REM COMMAND_LINE
REM seed 1885531150 -1738967843 323023290 -1509859611 1422221795 609545622 1595888911 1513114375 -1654159700 519819546 -151247458 -340769767
REM
REM Se 3|2.1|7|7|9|40:41:32(qc=5)
REM Ag 3|2.2|7|7|9|40U:50:41:42(qc=5)
REM 
CELL 1.54180    6.30913    6.30913    6.30913   90.50705   90.50705   90.50705
LATT -1
SFAC Se Ag 
Se     1 -0.2600591022062 -0.3575632058731  0.2301384983013 1.0
Se     1  0.2301384983013 -0.2600591022062 -0.3575632058731 1.0
Se     1 -0.3575632058731  0.2301384983013 -0.2600591022062 1.0
Se     1  0.2391374843797  0.2391374843797  0.2391374843797 1.0
Ag     2  0.0709850521587 -0.4925176310298 -0.0668940042104 1.0
Ag     2 -0.0668940042104  0.0709850521587 -0.4925176310298 1.0
Ag     2 -0.4925176310298 -0.0668940042104  0.0709850521587 1.0
Ag     2  0.1316193387810 -0.1774590258584  0.2288795288581 1.0
Ag     2  0.2288795288581  0.1316193387810 -0.1774590258584 1.0
Ag     2 -0.1774590258584  0.2288795288581  0.1316193387810 1.0
Ag     2 -0.3702483627186 -0.3702483627186 -0.3702483627186 1.0
Ag     2 -0.1206374705823 -0.1206374705823 -0.1206374705823 1.0
END
