TITL 4Ag2Se_TETRA-200803-163802-e36179 -0.0732 231.040644 -4.61182173E+004 0 0 12 (R3) n - 1
REM
REM Run started: Mon, 03 Aug 2020 17:02:56 +0100 in /lustre/scratch/uccabz1/launch_tmp/launcher_2020-08-03-15-38-00-429443
REM CASTEP 20.1 from code version af48c487+ pr-geom-scf-spinfix Tue Jun 2 15:39:59 2020 +0100
REM Functional PBE for solids (2008) Relativity Koelling-Harmon Dispersion off
REM Cut-off 300.0000 eV Grid scale 1.7500 Gmax 15.5288 1/A FBSC none
REM MP grid 3 3 3 Offset 0.000 0.000 0.000 No. kpts 6 Spacing 0.07
REM Total runtime: 1637.8 s
REM Overall efficiency: 63.4167 %
REM
REM 4Ag2Se_TETRA.cell (4020362940262d3df87d4014b41eb05e)
REM
REM compiler GCC version 4.9.2
REM options -cpp -iprefix /lustre/shared/ucl/apps/gcc/4.9.2/bin/../lib/gcc/x86_64-unknown-linux-gnu/4.9.2/ -mtune=corei7 -march=x86-64 -g -Og
REM COMMAND_LINE
REM seed 1726247446 262581295 -88757461 1551066352 -1166705093 1070182079 -946495101 607666096 -644248700 1733007791 412629643 -1425497132
REM
REM Se 3|2.1|7|7|9|40:41:32(qc=5)
REM Ag 3|2.2|7|7|9|40U:50:41:42(qc=5)
REM 
CELL 1.54180    6.13678    6.13678    6.13678   89.17945   89.17945   89.17945
LATT -1
SFAC Se Ag 
Se     1 -0.0790791022846  0.4785295460344  0.4605856301932 1.0
Se     1  0.4605856301932 -0.0790791022846  0.4785295460344 1.0
Se     1  0.4785295460344  0.4605856301932 -0.0790791022846 1.0
Se     1 -0.0895414266994 -0.0895414266994 -0.0895414266994 1.0
Ag     2  0.1507443649274  0.2415999383234 -0.2635063521781 1.0
Ag     2 -0.2635063521781  0.1507443649274  0.2415999383234 1.0
Ag     2  0.2415999383234 -0.2635063521781  0.1507443649274 1.0
Ag     2 -0.0925237912250  0.4903270009294  0.0130590794624 1.0
Ag     2  0.0130590794624 -0.0925237912250  0.4903270009294 1.0
Ag     2  0.4903270009294  0.0130590794624 -0.0925237912250 1.0
Ag     2  0.4829432979824  0.4829432979824  0.4829432979824 1.0
Ag     2  0.2274462145345  0.2274462145345  0.2274462145345 1.0
END
