TITL 4Ag2SE-200803-155114-307894 -0.0074 234.415336 -4.61173232E+004 0 0 12 (P-1) n - 1
REM
REM Run started: Mon, 03 Aug 2020 16:27:25 +0100 in /lustre/scratch/uccabz1/launch_tmp/launcher_2020-08-03-14-51-12-323747
REM CASTEP 20.1 from code version af48c487+ pr-geom-scf-spinfix Tue Jun 2 15:39:59 2020 +0100
REM Functional PBE for solids (2008) Relativity Koelling-Harmon Dispersion off
REM Cut-off 300.0000 eV Grid scale 1.7500 Gmax 15.5288 1/A FBSC none
REM MP grid 4 4 1 Offset 0.000 0.000 0.000 No. kpts 8 Spacing 0.07
REM Total runtime: 2561.79 s
REM Overall efficiency: 91.7143 %
REM
REM 4Ag2SE.cell (6404a18c6b5dc90313b5c56acf317f23)
REM
REM compiler GCC version 4.9.2
REM options -cpp -iprefix /lustre/shared/ucl/apps/gcc/4.9.2/bin/../lib/gcc/x86_64-unknown-linux-gnu/4.9.2/ -mtune=corei7 -march=x86-64 -g -Og
REM COMMAND_LINE
REM seed -471230880 -998042837 1168698706 1450464338 1474982258 -188731078 -2029954161 -1159443122 837070992 590327791 1667150681 1933316872
REM
REM Se 3|2.1|7|7|9|40:41:32(qc=5)
REM Ag 3|2.2|7|7|9|40U:50:41:42(qc=5)
REM 
CELL 1.54180    3.97067    3.97538   14.89053   89.00986   89.97781   85.92140
LATT -1
SFAC Se Ag 
Se     1  0.4196449578460 -0.4236914064225 -0.3424951342625 1.0
Se     1 -0.4196449578460  0.4236914064225  0.3424951342625 1.0
Se     1  0.2781434419775 -0.2792740234334 -0.0905570205561 1.0
Se     1 -0.2781434419775  0.2792740234334  0.0905570205561 1.0
Ag     2  0.1234928628199 -0.0462632365732  0.3489959121919 1.0
Ag     2 -0.1234928628199  0.0462632365732 -0.3489959121919 1.0
Ag     2 -0.2598593115027 -0.2600460489159  0.4915198467870 1.0
Ag     2  0.2598593115027  0.2600460489159 -0.4915198467870 1.0
Ag     2 -0.1896824311817  0.2495309992078 -0.0848909336320 1.0
Ag     2  0.1896824311817 -0.2495309992078  0.0848909336320 1.0
Ag     2  0.3406311340522  0.1565098879116 -0.2148745411775 1.0
Ag     2 -0.3406311340522 -0.1565098879116  0.2148745411775 1.0
END
