TITL 4Ag2Se_TETRA_OPT-200811-115308-f4c395 0.0427 225.234175 -4.61188959E+004 0 0 12 (P212121) n - 1
REM
REM Run started: Tue, 11 Aug 2020 12:59:15 +0100 in /lustre/scratch/uccabz1/launch_tmp/launcher_2020-08-11-10-53-06-745650
REM CASTEP 20.1 from code version af48c487+ pr-geom-scf-spinfix Tue Jun 2 15:39:59 2020 +0100
REM Functional PBE for solids (2008) Relativity Koelling-Harmon Dispersion off
REM Cut-off 300.0000 eV Grid scale 1.7500 Gmax 15.5288 1/A FBSC none
REM MP grid 3 3 3 Offset 0.000 0.000 0.000 No. kpts 8 Spacing 0.07
REM Total runtime: 4107 s
REM Overall efficiency: 88.3636 %
REM
REM 4Ag2Se_TETRA_OPT.cell (db6eaae92e6a5f18c152ebab86a92a61)
REM
REM compiler GCC version 4.9.2
REM options -cpp -iprefix /lustre/shared/ucl/apps/gcc/4.9.2/bin/../lib/gcc/x86_64-unknown-linux-gnu/4.9.2/ -mtune=corei7 -march=x86-64 -g -Og
REM COMMAND_LINE
REM seed 1306273541 -2140067407 -1252744484 170970986 338175646 -1868655407 -1221594118 -236840590 1610426270 1881873453 -268615251 412124988
REM
REM Se 3|2.1|7|7|9|40:41:32(qc=5)
REM Ag 3|2.2|7|7|9|40U:50:41:42(qc=5)
REM 
CELL 1.54180    6.73146    5.11691    6.53909   90.00000   90.00000   90.00000
LATT -1
SFAC Se Ag 
Se     1  0.0404227292357 -0.4211069319041 -0.0780595054363 1.0
Se     1 -0.0404227292357  0.0788930680959 -0.4219404945637 1.0
Se     1 -0.4595772707643 -0.0788930680959  0.0780595054363 1.0
Se     1  0.4595772707643  0.4211069319041  0.4219404945637 1.0
Ag     2 -0.2964967156583  0.3970698586776  0.0887728422343 1.0
Ag     2  0.2964967156583 -0.1029301413225  0.4112271577657 1.0
Ag     2  0.2035032843417  0.1029301413225 -0.0887728422343 1.0
Ag     2 -0.2035032843417 -0.3970698586776 -0.4112271577657 1.0
Ag     2  0.4178097075925 -0.3965336187706 -0.2096592597135 1.0
Ag     2 -0.4178097075925  0.1034663812294 -0.2903407402865 1.0
Ag     2 -0.0821902924075 -0.1034663812294  0.2096592597135 1.0
Ag     2  0.0821902924075  0.3965336187706  0.2903407402865 1.0
END
