TITL 4Ag2Se_TETRA-200803-162536-46e939 -0.0212 238.637299 -4.61178347E+004 0 0 12 (P21) n - 1
REM
REM Run started: Mon, 03 Aug 2020 17:09:01 +0100 in /lustre/scratch/uccabz1/launch_tmp/launcher_2020-08-03-15-25-35-090905
REM CASTEP 20.1 from code version af48c487+ pr-geom-scf-spinfix Tue Jun 2 15:39:59 2020 +0100
REM Functional PBE for solids (2008) Relativity Koelling-Harmon Dispersion off
REM Cut-off 300.0000 eV Grid scale 1.7500 Gmax 15.5288 1/A FBSC none
REM MP grid 3 3 3 Offset 0.000 0.000 0.000 No. kpts 10 Spacing 0.07
REM Total runtime: 2849.59 s
REM Overall efficiency: 91.4167 %
REM
REM 4Ag2Se_TETRA.cell (4020362940262d3df87d4014b41eb05e)
REM
REM compiler GCC version 4.9.2
REM options -cpp -iprefix /lustre/shared/ucl/apps/gcc/4.9.2/bin/../lib/gcc/x86_64-unknown-linux-gnu/4.9.2/ -mtune=corei7 -march=x86-64 -g -Og
REM COMMAND_LINE
REM seed -186616240 1129878850 -1715070074 -801306720 -1995569112 -1468309212 1110378574 397249 -934037243 685900922 1455725507 1177576472
REM
REM Se 3|2.1|7|7|9|40:41:32(qc=5)
REM Ag 3|2.2|7|7|9|40U:50:41:42(qc=5)
REM 
CELL 1.54180    6.81152    6.81152    5.14361   90.00000   90.00000   90.52250
LATT -1
SFAC Se Ag 
Se     1 -0.4314780837364  0.2680259611409 -0.0986009880603 1.0
Se     1  0.4314780837364 -0.2680259611409  0.4013990119397 1.0
Se     1 -0.0652706434061 -0.2880941858266  0.0177640696811 1.0
Se     1  0.0652706434061  0.2880941858266 -0.4822359303189 1.0
Ag     2 -0.2846438540462  0.1648580275633  0.3452144543314 1.0
Ag     2  0.2846438540462 -0.1648580275633 -0.1547855456686 1.0
Ag     2  0.0229227915806 -0.1132695779159  0.4549429959758 1.0
Ag     2 -0.0229227915806  0.1132695779159 -0.0450570040242 1.0
Ag     2 -0.3312983078326 -0.0967032463942 -0.2641065572157 1.0
Ag     2  0.3312983078326  0.0967032463942  0.2358934427843 1.0
Ag     2 -0.2205728279694 -0.4460224360346  0.4493540252877 1.0
Ag     2  0.2205728279694  0.4460224360346 -0.0506459747123 1.0
END
