TITL 4Ag2Se_TETRA_OPT-200811-103043-3931bc 0.0378 217.701124 -4.61182195E+004 0 0 12 (C2221) n - 1
REM
REM Run started: Tue, 11 Aug 2020 11:29:02 +0100 in /lustre/scratch/uccabz1/launch_tmp/launcher_2020-08-11-09-30-41-607958
REM CASTEP 20.1 from code version af48c487+ pr-geom-scf-spinfix Tue Jun 2 15:39:59 2020 +0100
REM Functional PBE for solids (2008) Relativity Koelling-Harmon Dispersion off
REM Cut-off 300.0000 eV Grid scale 1.7500 Gmax 15.5288 1/A FBSC none
REM MP grid 3 2 3 Offset 0.000 0.000 0.000 No. kpts 4 Spacing 0.07
REM Total runtime: 3512.81 s
REM Overall efficiency: 78.4167 %
REM
REM 4Ag2Se_TETRA_OPT.cell (db6eaae92e6a5f18c152ebab86a92a61)
REM
REM compiler GCC version 4.9.2
REM options -cpp -iprefix /lustre/shared/ucl/apps/gcc/4.9.2/bin/../lib/gcc/x86_64-unknown-linux-gnu/4.9.2/ -mtune=corei7 -march=x86-64 -g -Og
REM COMMAND_LINE
REM seed 1486076010 -1906861518 1678134626 1953073961 -2059112386 -1588438365 -1132789301 -898945342 1798639456 -1576362313 1435129769 959734168
REM
REM Se 3|2.1|7|7|9|40:41:32(qc=5)
REM Ag 3|2.2|7|7|9|40U:50:41:42(qc=5)
REM 
CELL 1.54180    5.09161    7.38743    5.78778   90.00000   90.00000   90.00000
LATT -1
SFAC Se Ag 
Se     1 -0.0000000000000  0.0493921799722  0.0000000000000 1.0
Se     1 -0.5000000000000 -0.0493921799722 -0.5000000000000 1.0
Se     1  0.5000000000000 -0.4470306237199  0.0000000000000 1.0
Se     1 -0.0000000000000  0.4470306237199 -0.5000000000000 1.0
Ag     2  0.4564557519042  0.2518127031808 -0.2502588632111 1.0
Ag     2 -0.4564557519042  0.2518127031808  0.2502588632111 1.0
Ag     2  0.0435442480958 -0.2518127031808  0.2497411367889 1.0
Ag     2 -0.0435442480958 -0.2518127031808 -0.2497411367889 1.0
Ag     2 -0.0000000000000  0.4158466701959  0.0000000000000 1.0
Ag     2  0.5000000000000 -0.4158466701959  0.5000000000000 1.0
Ag     2 -0.5000000000000 -0.0791792787147  0.0000000000000 1.0
Ag     2 -0.0000000000000  0.0791792787147  0.5000000000000 1.0
END
