TITL 4Ag2Se_TETRA-200803-162534-747daa -0.0932 232.785440 -4.61179452E+004 0 0 12 (Pcc2) n - 1
REM
REM Run started: Mon, 03 Aug 2020 17:03:32 +0100 in /lustre/scratch/uccabz1/launch_tmp/launcher_2020-08-03-15-25-32-182068
REM CASTEP 20.1 from code version af48c487+ pr-geom-scf-spinfix Tue Jun 2 15:39:59 2020 +0100
REM Functional PBE for solids (2008) Relativity Koelling-Harmon Dispersion off
REM Cut-off 300.0000 eV Grid scale 1.7500 Gmax 15.5288 1/A FBSC none
REM MP grid 3 3 3 Offset 0.000 0.000 0.000 No. kpts 8 Spacing 0.07
REM Total runtime: 2525.32 s
REM Overall efficiency: 88.9167 %
REM
REM 4Ag2Se_TETRA.cell (4020362940262d3df87d4014b41eb05e)
REM
REM compiler GCC version 4.9.2
REM options -cpp -iprefix /lustre/shared/ucl/apps/gcc/4.9.2/bin/../lib/gcc/x86_64-unknown-linux-gnu/4.9.2/ -mtune=corei7 -march=x86-64 -g -Og
REM COMMAND_LINE
REM seed -199754823 1038223992 -1396488043 -447256513 -580741534 499487477 2089456784 -1521768028 -1566113373 1045257969 771724461 -672637092
REM
REM Se 3|2.1|7|7|9|40:41:32(qc=5)
REM Ag 3|2.2|7|7|9|40U:50:41:42(qc=5)
REM 
CELL 1.54180    6.91509    6.92122    4.86380   90.00000   90.00000   90.00000
LATT -1
SFAC Se Ag 
Se     1  0.2530299012693  0.0029021588272 -0.2221491157673 1.0
Se     1 -0.2530299012693  0.0029021588272  0.2221491157673 1.0
Se     1  0.2530299012693 -0.4970978411728  0.2221491157673 1.0
Se     1 -0.2530299012693 -0.4970978411728 -0.2221491157673 1.0
Ag     2  0.3844276257643  0.3609911706435 -0.2697930347134 1.0
Ag     2 -0.3844276257643  0.3609911706435  0.2697930347134 1.0
Ag     2  0.3844276257643 -0.1390088293565  0.2697930347134 1.0
Ag     2 -0.3844276257643 -0.1390088293565 -0.2697930347134 1.0
Ag     2  0.1072556026918  0.1485158705293  0.2634297714811 1.0
Ag     2 -0.1072556026918  0.1485158705293 -0.2634297714811 1.0
Ag     2  0.1072556026918 -0.3514841294707 -0.2634297714811 1.0
Ag     2 -0.1072556026918 -0.3514841294707  0.2634297714811 1.0
END
