TITL 4Ag2SE-200803-155108-abba5a 0.4569 232.348227 -4.61183615E+004 0 0 12 (R3) n - 1
REM
REM Run started: Mon, 03 Aug 2020 16:52:07 +0100 in /lustre/scratch/uccabz1/launch_tmp/launcher_2020-08-03-14-51-05-785755
REM CASTEP 20.1 from code version af48c487+ pr-geom-scf-spinfix Tue Jun 2 15:39:59 2020 +0100
REM Functional PBE for solids (2008) Relativity Koelling-Harmon Dispersion off
REM Cut-off 300.0000 eV Grid scale 1.7500 Gmax 15.5288 1/A FBSC none
REM MP grid 3 3 3 Offset 0.000 0.000 0.000 No. kpts 6 Spacing 0.07
REM Total runtime: 4063.97 s
REM Overall efficiency: 67.75 %
REM
REM 4Ag2SE.cell (6404a18c6b5dc90313b5c56acf317f23)
REM
REM compiler GCC version 4.9.2
REM options -cpp -iprefix /lustre/shared/ucl/apps/gcc/4.9.2/bin/../lib/gcc/x86_64-unknown-linux-gnu/4.9.2/ -mtune=corei7 -march=x86-64 -g -Og
REM COMMAND_LINE
REM seed 915297803 2074255822 1835991337 -1198230851 -810524324 -244384429 1024527412 90687126 -845111026 568943734 101626284 663146652
REM
REM Se 3|2.1|7|7|9|40:41:32(qc=5)
REM Ag 3|2.2|7|7|9|40U:50:41:42(qc=5)
REM 
CELL 1.54180    6.14885    6.14885    6.14885   88.88712   88.88712   88.88712
LATT -1
SFAC Se Ag 
Se     1 -0.1679873096312  0.3318763648367 -0.1512408342213 1.0
Se     1  0.3318763648367 -0.1512408342213 -0.1679873096312 1.0
Se     1 -0.1512408342213 -0.1679873096312  0.3318763648367 1.0
Se     1  0.3832890646992  0.3832890646992  0.3832890646992 1.0
Ag     2  0.0828770342794  0.5957871607398  0.0642704007385 1.0
Ag     2  0.5957871607398  0.0642704007385  0.0828770342794 1.0
Ag     2  0.0642704007385  0.0828770342794  0.5957871607398 1.0
Ag     2  0.3717093762998 -0.1910573409439 -0.6165040347214 1.0
Ag     2 -0.1910573409439 -0.6165040347214  0.3717093762998 1.0
Ag     2 -0.6165040347214  0.3717093762998 -0.1910573409439 1.0
Ag     2  0.1353358451301  0.1353358451301  0.1353358451301 1.0
Ag     2 -0.2715694272055 -0.2715694272055 -0.2715694272055 1.0
END
