TITL 4Ag2Se_TETRA-200803-162838-61b40b -0.0056 231.957344 -4.61166141E+004 0 0 12 (C2/c) n - 1
REM
REM Run started: Mon, 03 Aug 2020 17:09:45 +0100 in /lustre/scratch/uccabz1/launch_tmp/launcher_2020-08-03-15-28-36-823284
REM CASTEP 20.1 from code version af48c487+ pr-geom-scf-spinfix Tue Jun 2 15:39:59 2020 +0100
REM Functional PBE for solids (2008) Relativity Koelling-Harmon Dispersion off
REM Cut-off 300.0000 eV Grid scale 1.7500 Gmax 15.5288 1/A FBSC none
REM MP grid 3 3 3 Offset 0.000 0.000 0.000 No. kpts 10 Spacing 0.07
REM Total runtime: 2713.67 s
REM Overall efficiency: 90.8333 %
REM
REM 4Ag2Se_TETRA.cell (4020362940262d3df87d4014b41eb05e)
REM
REM compiler GCC version 4.9.2
REM options -cpp -iprefix /lustre/shared/ucl/apps/gcc/4.9.2/bin/../lib/gcc/x86_64-unknown-linux-gnu/4.9.2/ -mtune=corei7 -march=x86-64 -g -Og
REM COMMAND_LINE
REM seed -1810709261 1645611131 -413203007 -1508561464 1691818519 -703645156 -756673393 -1804613884 -1112072049 121913409 2100638117 -111007289
REM
REM Se 3|2.1|7|7|9|40:41:32(qc=5)
REM Ag 3|2.2|7|7|9|40U:50:41:42(qc=5)
REM 
CELL 1.54180    5.95112    6.56936    5.95112   91.77137   93.62243   91.77137
LATT -1
SFAC Se Ag 
Se     1 -0.3806828347026 -0.2521214755401 -0.1291704126076 1.0
Se     1  0.1291704126076 -0.2478785244599  0.3806828347026 1.0
Se     1  0.3806828347026  0.2521214755401  0.1291704126076 1.0
Se     1 -0.1291704126076  0.2478785244599 -0.3806828347026 1.0
Ag     2  0.2097584240600 -0.4309794655002 -0.0622561645523 1.0
Ag     2  0.0622561645523 -0.0690205344998 -0.2097584240600 1.0
Ag     2 -0.2097584240600  0.4309794655002  0.0622561645523 1.0
Ag     2 -0.0622561645523  0.0690205344998  0.2097584240600 1.0
Ag     2 -0.4866866784082 -0.1018190049879  0.2663252101796 1.0
Ag     2 -0.2663252101796 -0.3981809950121  0.4866866784082 1.0
Ag     2  0.4866866784082  0.1018190049879 -0.2663252101796 1.0
Ag     2  0.2663252101796  0.3981809950121 -0.4866866784082 1.0
END
