TITL 4Ag2Se_TETRA-200803-161923-71c9ae 0.0419 229.906309 -4.61179947E+004 0 0 12 (P212121) n - 1
REM
REM Run started: Mon, 03 Aug 2020 16:29:51 +0100 in /lustre/scratch/uccabz1/launch_tmp/launcher_2020-08-03-15-19-21-867003
REM CASTEP 20.1 from code version af48c487+ pr-geom-scf-spinfix Tue Jun 2 15:39:59 2020 +0100
REM Functional PBE for solids (2008) Relativity Koelling-Harmon Dispersion off
REM Cut-off 300.0000 eV Grid scale 1.7500 Gmax 15.5288 1/A FBSC none
REM MP grid 2 2 4 Offset 0.000 0.000 0.000 No. kpts 2 Spacing 0.07
REM Total runtime: 684.89 s
REM Overall efficiency: 60.5833 %
REM
REM 4Ag2Se_TETRA.cell (4020362940262d3df87d4014b41eb05e)
REM
REM compiler GCC version 4.9.2
REM options -cpp -iprefix /lustre/shared/ucl/apps/gcc/4.9.2/bin/../lib/gcc/x86_64-unknown-linux-gnu/4.9.2/ -mtune=corei7 -march=x86-64 -g -Og
REM COMMAND_LINE
REM seed 1436269279 492699858 633883135 430196127 -1039861123 -1679545705 -1131721658 318936927 -2003310371 -1284756562 -960021 1038333135
REM
REM Se 3|2.1|7|7|9|40:41:32(qc=5)
REM Ag 3|2.2|7|7|9|40U:50:41:42(qc=5)
REM 
CELL 1.54180    7.56273    7.55735    4.02256   90.00000   90.00000   90.00000
LATT -1
SFAC Se Ag 
Se     1 -0.0840697789660 -0.4671607355076 -0.3777992693860 1.0
Se     1  0.0840697789660 -0.0328392644924  0.1222007306140 1.0
Se     1  0.4159302210340  0.4671607355076 -0.1222007306140 1.0
Se     1 -0.4159302210340  0.0328392644924  0.3777992693860 1.0
Ag     2 -0.3640099814269 -0.2794766939905  0.1155444938163 1.0
Ag     2  0.3640099814269 -0.2205233060095 -0.3844555061837 1.0
Ag     2  0.1359900185731  0.2794766939905  0.3844555061837 1.0
Ag     2 -0.1359900185731  0.2205233060095 -0.1155444938163 1.0
Ag     2  0.1387704568216 -0.3799694572020  0.1275783136275 1.0
Ag     2 -0.1387704568216 -0.1200305427980 -0.3724216863725 1.0
Ag     2 -0.3612295431784  0.3799694572020  0.3724216863725 1.0
Ag     2  0.3612295431784  0.1200305427980 -0.1275783136275 1.0
END
