TITL 4Ag2Se_TETRA-200803-165901-3333b8 0.0456 228.133466 -4.61178255E+004 0 0 12 (Pbcm) n - 1
REM
REM Run started: Mon, 03 Aug 2020 17:20:33 +0100 in /lustre/scratch/uccabz1/launch_tmp/launcher_2020-08-03-15-58-59-659756
REM CASTEP 20.1 from code version af48c487+ pr-geom-scf-spinfix Tue Jun 2 15:39:59 2020 +0100
REM Functional PBE for solids (2008) Relativity Koelling-Harmon Dispersion off
REM Cut-off 300.0000 eV Grid scale 1.7500 Gmax 15.5288 1/A FBSC none
REM MP grid 3 3 2 Offset 0.000 0.000 0.000 No. kpts 5 Spacing 0.07
REM Total runtime: 1411.41 s
REM Overall efficiency: 74.25 %
REM
REM 4Ag2Se_TETRA.cell (4020362940262d3df87d4014b41eb05e)
REM
REM compiler GCC version 4.9.2
REM options -cpp -iprefix /lustre/shared/ucl/apps/gcc/4.9.2/bin/../lib/gcc/x86_64-unknown-linux-gnu/4.9.2/ -mtune=corei7 -march=x86-64 -g -Og
REM COMMAND_LINE
REM seed -1812516915 -667865502 -146775456 212765205 -1503530631 -1823219437 -1281550814 -1061583455 -394733260 -1738270342 -385310389 126261325
REM
REM Se 3|2.1|7|7|9|40:41:32(qc=5)
REM Ag 3|2.2|7|7|9|40U:50:41:42(qc=5)
REM 
CELL 1.54180    5.60763    5.59908    7.26615   90.00000   90.00000   89.58437
LATT -1
SFAC Se Ag 
Se     1  0.4856302111827  0.2484304330209  0.1919811643037 1.0
Se     1  0.0143697888173 -0.2484304330209  0.1919811643037 1.0
Se     1 -0.4856302111827 -0.2484304330209 -0.1919811643037 1.0
Se     1 -0.0143697888173  0.2484304330209 -0.1919811643037 1.0
Ag     2  0.0137940729501 -0.2522864790377 -0.1777696480574 1.0
Ag     2  0.4862059270499  0.2522864790377 -0.1777696480574 1.0
Ag     2 -0.0137940729501  0.2522864790377  0.1777696480574 1.0
Ag     2 -0.4862059270499 -0.2522864790377  0.1777696480574 1.0
Ag     2  0.2718080910051 -0.2490947986913 -0.4978401672013 1.0
Ag     2  0.2281919089949  0.2490947986913 -0.4978401672013 1.0
Ag     2 -0.2718080910051  0.2490947986913  0.4978401672013 1.0
Ag     2 -0.2281919089949 -0.2490947986913  0.4978401672013 1.0
END
