TITL 4Ag2SE-200803-155114-20476e -0.0504 223.755529 -4.61181128E+004 0 0 12 (C2) n - 1
REM
REM Run started: Mon, 03 Aug 2020 16:24:54 +0100 in /lustre/scratch/uccabz1/launch_tmp/launcher_2020-08-03-14-51-12-449603
REM CASTEP 20.1 from code version af48c487+ pr-geom-scf-spinfix Tue Jun 2 15:39:59 2020 +0100
REM Functional PBE for solids (2008) Relativity Koelling-Harmon Dispersion off
REM Cut-off 300.0000 eV Grid scale 1.7500 Gmax 15.5288 1/A FBSC none
REM MP grid 3 3 2 Offset 0.000 0.000 0.000 No. kpts 8 Spacing 0.07
REM Total runtime: 2412.44 s
REM Overall efficiency: 93 %
REM
REM 4Ag2SE.cell (6404a18c6b5dc90313b5c56acf317f23)
REM
REM compiler GCC version 4.9.2
REM options -cpp -iprefix /lustre/shared/ucl/apps/gcc/4.9.2/bin/../lib/gcc/x86_64-unknown-linux-gnu/4.9.2/ -mtune=corei7 -march=x86-64 -g -Og
REM COMMAND_LINE
REM seed -68830104 -1706858589 -1105035117 973250978 -372824461 1193624727 -858401043 2022260844 1539451185 1991684990 -1217663880 1949718779
REM
REM Se 3|2.1|7|7|9|40:41:32(qc=5)
REM Ag 3|2.2|7|7|9|40U:50:41:42(qc=5)
REM 
CELL 1.54180    5.25126    5.99190    8.08203  109.52759  106.45735   96.43887
LATT -1
SFAC Se Ag 
Se     1 -0.1068431667406  0.4793939816000  0.3598775685358 1.0
Se     1  0.4667207352764 -0.1195164130641  0.3598775685358 1.0
Se     1  0.1621999952272  0.0862866184325 -0.2243251134401 1.0
Se     1 -0.3865251086673 -0.3106117318725 -0.2243251134401 1.0
Ag     2 -0.1988661587050 -0.3802049102857  0.0774937815856 1.0
Ag     2  0.2763599402907  0.4576986918714  0.0774937815856 1.0
Ag     2  0.4138050008275  0.3707227139205  0.4095409313374 1.0
Ag     2 -0.0042640694902  0.0388182174169  0.4095409313374 1.0
Ag     2 -0.3584066985293  0.2019156544848 -0.2733296809658 1.0
Ag     2  0.0850770175635 -0.4752453354506 -0.2733296809658 1.0
Ag     2  0.2667546812512 -0.0519746211596  0.0593805129470 1.0
Ag     2 -0.2073741683042  0.1113551341066  0.0593805129470 1.0
END
