TITL 4Ag2Se_TETRA_OPT-200811-112442-4bfb49 0.0395 216.304289 -4.61184779E+004 0 0 12 (P1) n - 1
REM
REM Run started: Tue, 11 Aug 2020 13:21:42 +0100 in /lustre/scratch/uccabz1/launch_tmp/launcher_2020-08-11-10-24-39-244012
REM CASTEP 20.1 from code version af48c487+ pr-geom-scf-spinfix Tue Jun 2 15:39:59 2020 +0100
REM Functional PBE for solids (2008) Relativity Koelling-Harmon Dispersion off
REM Cut-off 300.0000 eV Grid scale 1.7500 Gmax 15.5288 1/A FBSC none
REM MP grid 3 3 3 Offset 0.000 0.000 0.000 No. kpts 14 Spacing 0.07
REM Total runtime: 7067.86 s
REM Overall efficiency: 93 %
REM
REM 4Ag2Se_TETRA_OPT.cell (db6eaae92e6a5f18c152ebab86a92a61)
REM
REM compiler GCC version 4.9.2
REM options -cpp -iprefix /lustre/shared/ucl/apps/gcc/4.9.2/bin/../lib/gcc/x86_64-unknown-linux-gnu/4.9.2/ -mtune=corei7 -march=x86-64 -g -Og
REM COMMAND_LINE
REM seed 979951075 1143298808 -1390936035 -903727163 1097231467 623063676 -1354679358 -1184627966 1088785046 -320125325 -1055126465 1338047413
REM
REM Se 3|2.1|7|7|9|40:41:32(qc=5)
REM Ag 3|2.2|7|7|9|40U:50:41:42(qc=5)
REM 
CELL 1.54180    5.05012    7.16800    6.02087   96.92868   90.83896   90.87534
LATT -1
SFAC Se Ag 
Se     1  0.0191113250095  0.3496470464778  0.2892618189916 1.0
Se     1  0.3850629470985  0.2352355790027 -0.2826626306178 1.0
Se     1  0.0003773997757 -0.2639586729441 -0.2842709303928 1.0
Se     1  0.4162997989800 -0.1491749619808  0.2898001107822 1.0
Ag     2 -0.1050147574406 -0.2913099283846  0.2161426462983 1.0
Ag     2  0.3840842468227 -0.4557225420201  0.0095311817130 1.0
Ag     2  0.0194880804620  0.0388659371773  0.0142143554314 1.0
Ag     2  0.5284344926472  0.2101730757601  0.1949496964183 1.0
Ag     2  0.5261384565889 -0.4530771711859 -0.4790629373506 1.0
Ag     2 -0.1284336076125  0.3924701540619 -0.1478160754133 1.0
Ag     2 -0.4778269415635 -0.1109780336374 -0.1619108102218 1.0
Ag     2 -0.1267821407680  0.0594234176731  0.5273997743614 1.0
END
