TITL 4Ag2Se_TETRA_OPT-200811-090527-20b26c -0.0363 227.040042 -4.61182849E+004 0 0 12 (Pbcn) n - 1
REM
REM Run started: Tue, 11 Aug 2020 10:04:37 +0100 in /lustre/scratch/uccabz1/launch_tmp/launcher_2020-08-11-08-05-24-872713
REM CASTEP 20.1 from code version af48c487+ pr-geom-scf-spinfix Tue Jun 2 15:39:59 2020 +0100
REM Functional PBE for solids (2008) Relativity Koelling-Harmon Dispersion off
REM Cut-off 300.0000 eV Grid scale 1.7500 Gmax 15.5288 1/A FBSC none
REM MP grid 3 3 3 Offset 0.000 0.000 0.000 No. kpts 8 Spacing 0.07
REM Total runtime: 3865.27 s
REM Overall efficiency: 81.2308 %
REM
REM 4Ag2Se_TETRA_OPT.cell (db6eaae92e6a5f18c152ebab86a92a61)
REM
REM compiler GCC version 4.9.2
REM options -cpp -iprefix /lustre/shared/ucl/apps/gcc/4.9.2/bin/../lib/gcc/x86_64-unknown-linux-gnu/4.9.2/ -mtune=corei7 -march=x86-64 -g -Og
REM COMMAND_LINE
REM seed -1985783998 -1530350749 641677555 1996554983 418171384 -550317732 -1820785797 1057541453 -376284456 1941979202 1693214835 1786944647
REM
REM Se 3|2.1|7|7|9|40:41:32(qc=5)
REM Ag 3|2.2|7|7|9|40U:50:41:42(qc=5)
REM 
CELL 1.54180    4.86884    6.85987    6.79768   90.00000   90.00000   90.00000
LATT -1
SFAC Se Ag 
Se     1 -0.0173665160383  0.0000000000000 -0.2500000000000 1.0
Se     1 -0.5173665160383  0.0000000000000  0.2500000000000 1.0
Se     1 -0.1825478164249 -0.5000000000000  0.2500000000000 1.0
Se     1  0.3174521835751 -0.5000000000000 -0.2500000000000 1.0
Ag     2  0.4779897884660  0.1581325306843 -0.1114556404300 1.0
Ag     2  0.4779897884660 -0.1581325306843 -0.3885443595700 1.0
Ag     2 -0.0220102115340  0.1581325306843  0.1114556404300 1.0
Ag     2 -0.0220102115340 -0.1581325306843  0.3885443595700 1.0
Ag     2 -0.1775476222344 -0.3417259746806 -0.1114910834661 1.0
Ag     2 -0.1775476222344  0.3417259746806 -0.3885089165339 1.0
Ag     2  0.3224523777656 -0.3417259746806  0.1114910834661 1.0
Ag     2  0.3224523777656  0.3417259746806  0.3885089165339 1.0
END
