TITL 4Ag2Se_TETRA_OPT-200811-113035-7e35bf -0.0175 222.796547 -4.61183846E+004 0 0 12 (P1) n - 1
REM
REM Run started: Tue, 11 Aug 2020 12:50:03 +0100 in /lustre/scratch/uccabz1/launch_tmp/launcher_2020-08-11-10-30-34-064789
REM CASTEP 20.1 from code version af48c487+ pr-geom-scf-spinfix Tue Jun 2 15:39:59 2020 +0100
REM Functional PBE for solids (2008) Relativity Koelling-Harmon Dispersion off
REM Cut-off 300.0000 eV Grid scale 1.7500 Gmax 15.5288 1/A FBSC none
REM MP grid 3 3 3 Offset 0.000 0.000 0.000 No. kpts 14 Spacing 0.07
REM Total runtime: 5146.28 s
REM Overall efficiency: 94.6667 %
REM
REM 4Ag2Se_TETRA_OPT.cell (db6eaae92e6a5f18c152ebab86a92a61)
REM
REM compiler GCC version 4.9.2
REM options -cpp -iprefix /lustre/shared/ucl/apps/gcc/4.9.2/bin/../lib/gcc/x86_64-unknown-linux-gnu/4.9.2/ -mtune=corei7 -march=x86-64 -g -Og
REM COMMAND_LINE
REM seed 1791919729 -1884594016 -1832396791 -554870009 -1722552922 930692437 1829674681 -844211336 -1008935138 731753040 1477593967 -1376305473
REM
REM Se 3|2.1|7|7|9|40:41:32(qc=5)
REM Ag 3|2.2|7|7|9|40U:50:41:42(qc=5)
REM 
CELL 1.54180    5.05972    7.11518    6.35863   97.47985   81.30266   84.50611
LATT -1
SFAC Se Ag 
Se     1  0.4577120401457  0.2573696869293  0.4201512500355 1.0
Se     1  0.3382710576853 -0.1302809474938 -0.0145495209373 1.0
Se     1 -0.2199569098507  0.4151802972865 -0.1118492119990 1.0
Se     1 -0.0589173020936 -0.1467415384924  0.5173242111293 1.0
Ag     2  0.4382992183447 -0.1199511414376  0.4964105130817 1.0
Ag     2  0.3058351571688 -0.4698079191118  0.2015030793276 1.0
Ag     2  0.2691993857397  0.2156636280669 -0.1550778643442 1.0
Ag     2  0.2357835347578 -0.4232511250085 -0.2831687848412 1.0
Ag     2 -0.1782776516178 -0.2657965459261  0.1248803486879 1.0
Ag     2  0.0142633218459  0.1599516061453  0.2648718322507 1.0
Ag     2 -0.2204975537743  0.5178609843502  0.4849466399194 1.0
Ag     2 -0.2246564983515  0.0514293146920 -0.0919169923105 1.0
END
