TITL 4Ag2Se_TETRA-200803-164507-f89989 -0.0590 227.306608 -4.61184760E+004 0 0 12 (P-43m) n - 1
REM
REM Run started: Mon, 03 Aug 2020 17:08:25 +0100 in /lustre/scratch/uccabz1/launch_tmp/launcher_2020-08-03-15-45-06-033844
REM CASTEP 20.1 from code version af48c487+ pr-geom-scf-spinfix Tue Jun 2 15:39:59 2020 +0100
REM Functional PBE for solids (2008) Relativity Koelling-Harmon Dispersion off
REM Cut-off 300.0000 eV Grid scale 1.7500 Gmax 15.5288 1/A FBSC none
REM MP grid 3 3 3 Offset 0.000 0.000 0.000 No. kpts 6 Spacing 0.07
REM Total runtime: 1415.86 s
REM Overall efficiency: 62.0833 %
REM
REM 4Ag2Se_TETRA.cell (4020362940262d3df87d4014b41eb05e)
REM
REM compiler GCC version 4.9.2
REM options -cpp -iprefix /lustre/shared/ucl/apps/gcc/4.9.2/bin/../lib/gcc/x86_64-unknown-linux-gnu/4.9.2/ -mtune=corei7 -march=x86-64 -g -Og
REM COMMAND_LINE
REM seed 1752547096 219279862 434293974 -551758702 -1617620598 -1245745553 -1971255458 170578866 -1658041122 -661087505 -30660171 406950708
REM
REM Se 3|2.1|7|7|9|40:41:32(qc=5)
REM Ag 3|2.2|7|7|9|40U:50:41:42(qc=5)
REM 
CELL 1.54180    6.10293    6.10293    6.10293   89.86427   89.86427   89.86427
LATT -1
SFAC Se Ag 
Se     1 -0.0301912546737 -0.0301912546737 -0.4986243815073 1.0
Se     1 -0.0301912546737 -0.4986243815073 -0.0301912546737 1.0
Se     1 -0.4986243815073 -0.0301912546737 -0.0301912546737 1.0
Se     1 -0.4988120834614 -0.4988120834614 -0.4988120834614 1.0
Ag     2 -0.4719938931802 -0.4719938931802 -0.0581158081280 1.0
Ag     2 -0.4719938931802 -0.0581158081280 -0.4719938931802 1.0
Ag     2 -0.0581158081280 -0.4719938931802 -0.4719938931802 1.0
Ag     2  0.2350641590482 -0.2651099651957  0.2350641590482 1.0
Ag     2 -0.2651099651957  0.2350641590482  0.2350641590482 1.0
Ag     2  0.2350641590482  0.2350641590482 -0.2651099651957 1.0
Ag     2  0.2352213940305  0.2352213940305  0.2352213940305 1.0
Ag     2 -0.0574617781267 -0.0574617781267 -0.0574617781267 1.0
END
