TITL 4Ag2Se_TETRA-200803-165645-e02226 0.0102 237.300136 -4.61180492E+004 0 0 12 (R3) n - 1
REM
REM Run started: Mon, 03 Aug 2020 17:18:51 +0100 in /lustre/scratch/uccabz1/launch_tmp/launcher_2020-08-03-15-56-43-451344
REM CASTEP 20.1 from code version af48c487+ pr-geom-scf-spinfix Tue Jun 2 15:39:59 2020 +0100
REM Functional PBE for solids (2008) Relativity Koelling-Harmon Dispersion off
REM Cut-off 300.0000 eV Grid scale 1.7500 Gmax 15.5288 1/A FBSC none
REM MP grid 3 3 3 Offset 0.000 0.000 0.000 No. kpts 6 Spacing 0.07
REM Total runtime: 1457.92 s
REM Overall efficiency: 63.8333 %
REM
REM 4Ag2Se_TETRA.cell (4020362940262d3df87d4014b41eb05e)
REM
REM compiler GCC version 4.9.2
REM options -cpp -iprefix /lustre/shared/ucl/apps/gcc/4.9.2/bin/../lib/gcc/x86_64-unknown-linux-gnu/4.9.2/ -mtune=corei7 -march=x86-64 -g -Og
REM COMMAND_LINE
REM seed -491321050 1496144894 709502186 1268276947 347915952 218422631 -1964976439 -542234174 -1861492678 -1384281865 478181585 935080598
REM
REM Se 3|2.1|7|7|9|40:41:32(qc=5)
REM Ag 3|2.2|7|7|9|40U:50:41:42(qc=5)
REM 
CELL 1.54180    6.19128    6.19128    6.19128   90.46891   90.46891   90.46891
LATT -1
SFAC Se Ag 
Se     1 -0.3796883507799  0.1463927071603 -0.3611326435471 1.0
Se     1 -0.3611326435471 -0.3796883507799  0.1463927071603 1.0
Se     1  0.1463927071603 -0.3611326435471 -0.3796883507799 1.0
Se     1  0.1876606055190  0.1876606055190  0.1876606055190 1.0
Ag     2  0.0279181375123  0.2366256770362 -0.4309196366310 1.0
Ag     2 -0.4309196366310  0.0279181375123  0.2366256770362 1.0
Ag     2  0.2366256770362 -0.4309196366310  0.0279181375123 1.0
Ag     2  0.3003142351686 -0.0219254146408 -0.1598476290465 1.0
Ag     2 -0.1598476290465  0.3003142351686 -0.0219254146408 1.0
Ag     2 -0.0219254146408 -0.1598476290465  0.3003142351686 1.0
Ag     2 -0.1473511246296 -0.1473511246296 -0.1473511246296 1.0
Ag     2 -0.4331295631216 -0.4331295631216 -0.4331295631216 1.0
END
