TITL 4Ag2SE-200803-155103-9fd959 0.0741 230.454045 -4.61183528E+004 0 0 12 (P-1) n - 1
REM
REM Run started: Mon, 03 Aug 2020 16:28:47 +0100 in /lustre/scratch/uccabz1/launch_tmp/launcher_2020-08-03-14-51-01-628240
REM CASTEP 20.1 from code version af48c487+ pr-geom-scf-spinfix Tue Jun 2 15:39:59 2020 +0100
REM Functional PBE for solids (2008) Relativity Koelling-Harmon Dispersion off
REM Cut-off 300.0000 eV Grid scale 1.7500 Gmax 15.5288 1/A FBSC none
REM MP grid 4 3 3 Offset 0.000 0.000 0.000 No. kpts 18 Spacing 0.07
REM Total runtime: 2429.39 s
REM Overall efficiency: 86.6667 %
REM
REM 4Ag2SE.cell (6404a18c6b5dc90313b5c56acf317f23)
REM
REM compiler GCC version 4.9.2
REM options -cpp -iprefix /lustre/shared/ucl/apps/gcc/4.9.2/bin/../lib/gcc/x86_64-unknown-linux-gnu/4.9.2/ -mtune=corei7 -march=x86-64 -g -Og
REM COMMAND_LINE
REM seed 793027987 -648498196 -437317043 1375413232 -1894074053 -2085625357 966435181 354345524 -491042467 776688996 -487603293 -1429439528
REM
REM Se 3|2.1|7|7|9|40:41:32(qc=5)
REM Ag 3|2.2|7|7|9|40U:50:41:42(qc=5)
REM 
CELL 1.54180    4.34475    7.47882    7.75964   66.74008   85.49409   91.58760
LATT -1
SFAC Se Ag 
Se     1 -0.2391366013438 -0.0081886031594 -0.2522087944824 1.0
Se     1  0.2391366013438  0.0081886031594  0.2522087944824 1.0
Se     1  0.2130532714252  0.4185306136053 -0.2123777396425 1.0
Se     1 -0.2130532714252 -0.4185306136053  0.2123777396425 1.0
Ag     2  0.2837100411003  0.3956984826754  0.1629028964042 1.0
Ag     2 -0.2837100411003 -0.3956984826754 -0.1629028964042 1.0
Ag     2 -0.2582361028866  0.1557148293618  0.0088755571377 1.0
Ag     2  0.2582361028866 -0.1557148293618 -0.0088755571377 1.0
Ag     2  0.2684972043363 -0.3818196794242  0.4119936887880 1.0
Ag     2 -0.2684972043363  0.3818196794242 -0.4119936887880 1.0
Ag     2  0.2649078372298 -0.1525380112168 -0.3723552498446 1.0
Ag     2 -0.2649078372298  0.1525380112168  0.3723552498446 1.0
END
