TITL 4Ag2SE-200803-155107-f12aff 0.0341 213.043469 -4.61183814E+004 0 0 12 (I4/mmm) n - 1
REM
REM Run started: Mon, 03 Aug 2020 16:36:27 +0100 in /lustre/scratch/uccabz1/launch_tmp/launcher_2020-08-03-14-51-06-100026
REM CASTEP 20.1 from code version af48c487+ pr-geom-scf-spinfix Tue Jun 2 15:39:59 2020 +0100
REM Functional PBE for solids (2008) Relativity Koelling-Harmon Dispersion off
REM Cut-off 300.0000 eV Grid scale 1.7500 Gmax 15.5288 1/A FBSC none
REM MP grid 4 2 2 Offset 0.000 0.000 0.000 No. kpts 4 Spacing 0.07
REM Total runtime: 2732.47 s
REM Overall efficiency: 72.8333 %
REM
REM 4Ag2SE.cell (6404a18c6b5dc90313b5c56acf317f23)
REM
REM compiler GCC version 4.9.2
REM options -cpp -iprefix /lustre/shared/ucl/apps/gcc/4.9.2/bin/../lib/gcc/x86_64-unknown-linux-gnu/4.9.2/ -mtune=corei7 -march=x86-64 -g -Og
REM COMMAND_LINE
REM seed 1271995141 3355338 366201663 -1150479608 786836806 -1195926886 1163530504 628367726 -939967513 -549217824 1283627645 897632488
REM
REM Se 3|2.1|7|7|9|40:41:32(qc=5)
REM Ag 3|2.2|7|7|9|40U:50:41:42(qc=5)
REM 
CELL 1.54180    3.60796    8.18569    7.21360   90.00000   89.90474   90.00000
LATT -1
SFAC Se Ag 
Se     1 -0.2497950371123 -0.3245982665990 -0.1248542925025 1.0
Se     1  0.2497950371123  0.1754017334010  0.1248542925025 1.0
Se     1 -0.2497510814891 -0.3245954239131  0.3749864156740 1.0
Se     1  0.2497510814891  0.1754045760869 -0.3749864156740 1.0
Ag     2 -0.2450780471142  0.0074909005849 -0.1238799985330 1.0
Ag     2  0.2450780471142  0.5074909005849  0.1238799985330 1.0
Ag     2  0.2575551943521 -0.1556506515065  0.1262901731974 1.0
Ag     2 -0.2575551943521  0.3443493484935 -0.1262901731974 1.0
Ag     2 -0.2432183477281  0.0065834173439  0.3755221438400 1.0
Ag     2  0.2432183477281 -0.4934165826561 -0.3755221438400 1.0
Ag     2  0.2558919975064 -0.1561255759101 -0.3734075390940 1.0
Ag     2 -0.2558919975064  0.3438744240899  0.3734075390940 1.0
END
