TITL 4Ag2Se_TETRA_OPT-200811-094601-9e053a -0.0038 226.085257 -4.61186631E+004 0 0 12 (P21) n - 1
REM
REM Run started: Tue, 11 Aug 2020 10:53:27 +0100 in /lustre/scratch/uccabz1/launch_tmp/launcher_2020-08-11-08-45-58-561680
REM CASTEP 20.1 from code version af48c487+ pr-geom-scf-spinfix Tue Jun 2 15:39:59 2020 +0100
REM Functional PBE for solids (2008) Relativity Koelling-Harmon Dispersion off
REM Cut-off 300.0000 eV Grid scale 1.7500 Gmax 15.5288 1/A FBSC none
REM MP grid 3 3 3 Offset 0.000 0.000 0.000 No. kpts 10 Spacing 0.07
REM Total runtime: 4177.97 s
REM Overall efficiency: 85.8889 %
REM
REM 4Ag2Se_TETRA_OPT.cell (db6eaae92e6a5f18c152ebab86a92a61)
REM
REM compiler GCC version 4.9.2
REM options -cpp -iprefix /lustre/shared/ucl/apps/gcc/4.9.2/bin/../lib/gcc/x86_64-unknown-linux-gnu/4.9.2/ -mtune=corei7 -march=x86-64 -g -Og
REM COMMAND_LINE
REM seed -1448732095 -535295335 -1049220597 627233338 1877898399 282856103 -1430176442 -252950920 1058741801 538405089 1100409879 -505837037
REM
REM Se 3|2.1|7|7|9|40:41:32(qc=5)
REM Ag 3|2.2|7|7|9|40U:50:41:42(qc=5)
REM 
CELL 1.54180    4.85518    6.85679    6.79212   90.94288   90.00000   90.00000
LATT -1
SFAC Se Ag 
Se     1  0.5667200981349  0.4538406761931  0.2948271787251 1.0
Se     1  0.0667200981349 -0.4538406761931 -0.2948271787251 1.0
Se     1  0.0353213560865 -0.0387902599903  0.1961256195525 1.0
Se     1  0.5353213560865  0.0387902599903 -0.1961256195525 1.0
Ag     2  0.0443344153152 -0.4318973475449  0.1039902208696 1.0
Ag     2 -0.4556655846848  0.4318973475449 -0.1039902208696 1.0
Ag     2 -0.4622106871114 -0.2049749192046  0.1027463871579 1.0
Ag     2  0.0377893128886  0.2049749192046 -0.1027463871579 1.0
Ag     2  0.0694457077648 -0.0758419858414 -0.4122349468433 1.0
Ag     2 -0.4305542922352  0.0758419858414  0.4122349468433 1.0
Ag     2 -0.4304459901900 -0.2944573073036  0.5889309872629 1.0
Ag     2  0.0695540098100  0.2944573073036 -0.5889309872629 1.0
END
