TITL 4Ag2Se_TETRA-200803-165222-6a95db -0.0336 234.553369 -4.61178963E+004 0 0 12 (P21) n - 1
REM
REM Run started: Mon, 03 Aug 2020 17:11:59 +0100 in /lustre/scratch/uccabz1/launch_tmp/launcher_2020-08-03-15-52-20-553405
REM CASTEP 20.1 from code version af48c487+ pr-geom-scf-spinfix Tue Jun 2 15:39:59 2020 +0100
REM Functional PBE for solids (2008) Relativity Koelling-Harmon Dispersion off
REM Cut-off 300.0000 eV Grid scale 1.7500 Gmax 15.5288 1/A FBSC none
REM MP grid 2 3 4 Offset 0.000 0.000 0.000 No. kpts 6 Spacing 0.07
REM Total runtime: 1291.37 s
REM Overall efficiency: 71.6667 %
REM
REM 4Ag2Se_TETRA.cell (4020362940262d3df87d4014b41eb05e)
REM
REM compiler GCC version 4.9.2
REM options -cpp -iprefix /lustre/shared/ucl/apps/gcc/4.9.2/bin/../lib/gcc/x86_64-unknown-linux-gnu/4.9.2/ -mtune=corei7 -march=x86-64 -g -Og
REM COMMAND_LINE
REM seed 1902216402 1979853824 -257759182 1251274966 920190381 1837078643 857901656 -1654824708 392036546 -1382185410 -956687956 -400322365
REM
REM Se 3|2.1|7|7|9|40:41:32(qc=5)
REM Ag 3|2.2|7|7|9|40U:50:41:42(qc=5)
REM 
CELL 1.54180    7.15971    7.10130    4.61329   89.79915   90.00000   90.00000
LATT -1
SFAC Se Ag 
Se     1  0.2513640840102 -0.2804533257858  0.4315780161092 1.0
Se     1 -0.2486359159898  0.2804533257858 -0.4315780161092 1.0
Se     1  0.3161665047420  0.2154334032321  0.0220233713899 1.0
Se     1 -0.1838334952580 -0.2154334032321 -0.0220233713899 1.0
Ag     2  0.4900051029054 -0.3868121001614  0.0204746544613 1.0
Ag     2 -0.0099948970946  0.3868121001614 -0.0204746544613 1.0
Ag     2  0.0833108418557  0.1470070435677  0.4610563038530 1.0
Ag     2 -0.4166891581443 -0.1470070435677 -0.4610563038530 1.0
Ag     2  0.3987554168126  0.3907235305730 -0.4715623433082 1.0
Ag     2 -0.1012445831874 -0.3907235305730  0.4715623433082 1.0
Ag     2  0.1717817496740 -0.1123075232708 -0.0756086675410 1.0
Ag     2 -0.3282182503260  0.1123075232708  0.0756086675410 1.0
END
