TITL 4Ag2Se_TETRA_OPT-200811-111358-8b6cf5 0.0375 232.335607 -4.61183131E+004 0 0 12 (P1) n - 1
REM
REM Run started: Tue, 11 Aug 2020 12:26:48 +0100 in /lustre/scratch/uccabz1/launch_tmp/launcher_2020-08-11-10-13-56-663940
REM CASTEP 20.1 from code version af48c487+ pr-geom-scf-spinfix Tue Jun 2 15:39:59 2020 +0100
REM Functional PBE for solids (2008) Relativity Koelling-Harmon Dispersion off
REM Cut-off 300.0000 eV Grid scale 1.7500 Gmax 15.5288 1/A FBSC none
REM MP grid 4 2 3 Offset 0.000 0.000 0.000 No. kpts 12 Spacing 0.07
REM Total runtime: 4501.56 s
REM Overall efficiency: 87.7778 %
REM
REM 4Ag2Se_TETRA_OPT.cell (db6eaae92e6a5f18c152ebab86a92a61)
REM
REM compiler GCC version 4.9.2
REM options -cpp -iprefix /lustre/shared/ucl/apps/gcc/4.9.2/bin/../lib/gcc/x86_64-unknown-linux-gnu/4.9.2/ -mtune=corei7 -march=x86-64 -g -Og
REM COMMAND_LINE
REM seed 1351568282 642279538 2116166865 -1350207630 -668781298 511189923 -1524085987 -1658662269 -164333185 628336264 887417468 2005873307
REM
REM Se 3|2.1|7|7|9|40:41:32(qc=5)
REM Ag 3|2.2|7|7|9|40U:50:41:42(qc=5)
REM 
CELL 1.54180    4.21777    7.72333    7.24228   94.30556   98.98852   90.21496
LATT -1
SFAC Se Ag 
Se     1 -0.2231246353287  0.3380182285358  0.0423766398843 1.0
Se     1  0.3012868643010 -0.1637301012843  0.0717604186622 1.0
Se     1  0.1596933145599  0.0727631206912 -0.4845889447756 1.0
Se     1 -0.4028600566610 -0.4007546166750 -0.4830046716430 1.0
Ag     2 -0.1697587591167  0.0259234048875 -0.1032788219993 1.0
Ag     2 -0.3943681809321  0.1034050976893  0.2681168868431 1.0
Ag     2 -0.3118116653038  0.2738285714124 -0.3729534248214 1.0
Ag     2  0.1115532573896  0.3952742292294  0.3799105347637 1.0
Ag     2  0.2074428798106 -0.2060496292278 -0.2999254020892 1.0
Ag     2 -0.0701801533480 -0.2458598153719  0.3086357843795 1.0
Ag     2  0.2316642592170  0.4139465989108 -0.1515032989403 1.0
Ag     2 -0.2481133245877 -0.3413180887973 -0.0964778002639 1.0
END
