TITL 4Ag2Se_TETRA_OPT-200811-101008-69149a -0.1179 230.653256 -4.61183729E+004 0 0 12 (P1) n - 1
REM
REM Run started: Tue, 11 Aug 2020 12:39:44 +0100 in /lustre/scratch/uccabz1/launch_tmp/launcher_2020-08-11-09-10-06-473723
REM CASTEP 20.1 from code version af48c487+ pr-geom-scf-spinfix Tue Jun 2 15:39:59 2020 +0100
REM Functional PBE for solids (2008) Relativity Koelling-Harmon Dispersion off
REM Cut-off 300.0000 eV Grid scale 1.7500 Gmax 15.5288 1/A FBSC none
REM MP grid 3 3 3 Offset 0.000 0.000 0.000 No. kpts 14 Spacing 0.07
REM Total runtime: 9873.58 s
REM Overall efficiency: 95.6667 %
REM
REM 4Ag2Se_TETRA_OPT.cell (db6eaae92e6a5f18c152ebab86a92a61)
REM
REM compiler GCC version 4.9.2
REM options -cpp -iprefix /lustre/shared/ucl/apps/gcc/4.9.2/bin/../lib/gcc/x86_64-unknown-linux-gnu/4.9.2/ -mtune=corei7 -march=x86-64 -g -Og
REM COMMAND_LINE
REM seed 7848876 965658546 -2088048969 -790583073 681267496 1650796793 -984059006 -25193902 1688659956 1522477885 237933664 693803735
REM
REM Se 3|2.1|7|7|9|40:41:32(qc=5)
REM Ag 3|2.2|7|7|9|40U:50:41:42(qc=5)
REM 
CELL 1.54180    6.04757    6.42028    6.00116   87.63696   91.08188   82.32414
LATT -1
SFAC Se Ag 
Se     1 -0.4160424490098  0.0408262560571  0.2169971718564 1.0
Se     1 -0.5135120178629 -0.3763659828377 -0.2791406319852 1.0
Se     1 -0.0169776150351 -0.3582551014053  0.0901524193835 1.0
Se     1  0.0182659836754  0.1388919074585 -0.4220494755100 1.0
Ag     2  0.3478406684390  0.3885895157641  0.0972999031446 1.0
Ag     2  0.4399192884953  0.2434629977803 -0.4311446083454 1.0
Ag     2  0.2729519155035  0.0001210414904 -0.0794280697730 1.0
Ag     2  0.2670902571247 -0.2045712880330  0.3527425825178 1.0
Ag     2 -0.2935518615634 -0.4846908051968  0.3625228977032 1.0
Ag     2 -0.1657653948903  0.2809457694583 -0.0212530346467 1.0
Ag     2  0.0562614932667 -0.4554245723465 -0.3380656984709 1.0
Ag     2 -0.2497304681432 -0.0877448381894 -0.2260593558744 1.0
END
