TITL 4Ag2Se_TETRA_OPT-200811-113645-fac1c7 0.0623 228.990921 -4.61185584E+004 0 0 12 (P1) n - 1
REM
REM Run started: Tue, 11 Aug 2020 13:02:53 +0100 in /lustre/scratch/uccabz1/launch_tmp/launcher_2020-08-11-10-36-43-654799
REM CASTEP 20.1 from code version af48c487+ pr-geom-scf-spinfix Tue Jun 2 15:39:59 2020 +0100
REM Functional PBE for solids (2008) Relativity Koelling-Harmon Dispersion off
REM Cut-off 300.0000 eV Grid scale 1.7500 Gmax 15.5288 1/A FBSC none
REM MP grid 3 3 2 Offset 0.000 0.000 0.000 No. kpts 9 Spacing 0.07
REM Total runtime: 5240.52 s
REM Overall efficiency: 93.4 %
REM
REM 4Ag2Se_TETRA_OPT.cell (db6eaae92e6a5f18c152ebab86a92a61)
REM
REM compiler GCC version 4.9.2
REM options -cpp -iprefix /lustre/shared/ucl/apps/gcc/4.9.2/bin/../lib/gcc/x86_64-unknown-linux-gnu/4.9.2/ -mtune=corei7 -march=x86-64 -g -Og
REM COMMAND_LINE
REM seed -830537832 1668970346 -484885672 -1745719740 -1783118968 1986451042 -1562537067 568445074 102645766 -745360531 1494733402 -2048705067
REM
REM Se 3|2.1|7|7|9|40:41:32(qc=5)
REM Ag 3|2.2|7|7|9|40U:50:41:42(qc=5)
REM 
CELL 1.54180    4.78391    6.71222    7.17741   95.85288   91.10287   92.47758
LATT -1
SFAC Se Ag 
Se     1 -0.1071111463126  0.2126767389433  0.1957182730401 1.0
Se     1  0.3576626796941 -0.3969242005838  0.1229490626006 1.0
Se     1 -0.3543751885923  0.3283203161811 -0.2894987171417 1.0
Se     1  0.0613074447253 -0.1028948511911 -0.2328124892763 1.0
Ag     2  0.1998472475435 -0.2544421152297  0.4458682183149 1.0
Ag     2 -0.2878271382404 -0.0211416588483 -0.5167524133254 1.0
Ag     2 -0.1360022756864 -0.2152111253028  0.1132843230805 1.0
Ag     2  0.2144762660413  0.2555633967142 -0.5115171570008 1.0
Ag     2  0.5478922805149 -0.2779064993489 -0.2258846420839 1.0
Ag     2 -0.6137174649588  0.0189590822892  0.1498596929501 1.0
Ag     2  0.1757692229863  0.2850493793962 -0.1087017734136 1.0
Ag     2 -0.3122924277149 -0.4735981630193  0.4111201222558 1.0
END
