TITL 4Ag2SE-200803-160659-278148 -0.0403 237.899804 -4.61180048E+004 0 0 12 (Pmc21) n - 1
REM
REM Run started: Mon, 03 Aug 2020 16:30:06 +0100 in /lustre/scratch/uccabz1/launch_tmp/launcher_2020-08-03-15-06-57-534790
REM CASTEP 20.1 from code version af48c487+ pr-geom-scf-spinfix Tue Jun 2 15:39:59 2020 +0100
REM Functional PBE for solids (2008) Relativity Koelling-Harmon Dispersion off
REM Cut-off 300.0000 eV Grid scale 1.7500 Gmax 15.5288 1/A FBSC none
REM MP grid 4 3 2 Offset 0.000 0.000 0.000 No. kpts 6 Spacing 0.07
REM Total runtime: 1621.09 s
REM Overall efficiency: 71.4286 %
REM
REM 4Ag2SE.cell (6404a18c6b5dc90313b5c56acf317f23)
REM
REM compiler GCC version 4.9.2
REM options -cpp -iprefix /lustre/shared/ucl/apps/gcc/4.9.2/bin/../lib/gcc/x86_64-unknown-linux-gnu/4.9.2/ -mtune=corei7 -march=x86-64 -g -Og
REM COMMAND_LINE
REM seed -391145917 107353753 739510668 2062974851 -436610111 -1367521937 -1758829984 1315686726 -655092728 456827377 1380139280 -1607816455
REM
REM Se 3|2.1|7|7|9|40:41:32(qc=5)
REM Ag 3|2.2|7|7|9|40U:50:41:42(qc=5)
REM 
CELL 1.54180    4.22212    5.56574   10.12376   90.00000   90.00000   89.88191
LATT -1
SFAC Se Ag 
Se     1 -0.0000224714443 -0.0470584651294  0.4717130379118 1.0
Se     1  0.0000224714443  0.0470584651294 -0.0282869620882 1.0
Se     1  0.4995831420841  0.4747318155059  0.3087256339695 1.0
Se     1 -0.4995831420841 -0.4747318155059 -0.1912743660305 1.0
Ag     2  0.5002889236239 -0.2903772110682 -0.4267912146870 1.0
Ag     2 -0.5002889236239  0.2903772110682  0.0732087853130 1.0
Ag     2  0.4994003019195 -0.2192544819373  0.0324708967898 1.0
Ag     2 -0.4994003019195  0.2192544819373 -0.4675291032102 1.0
Ag     2 -0.0010632127294 -0.3510188055066  0.1927779386975 1.0
Ag     2  0.0010632127294  0.3510188055066 -0.3072220613025 1.0
Ag     2 -0.4962079550110  0.0303113902758 -0.2117630926816 1.0
Ag     2  0.4962079550110 -0.0303113902758  0.2882369073184 1.0
END
