TITL 4Ag2SE-200803-160542-d82ed0 -0.0504 219.609381 -4.61184896E+004 0 0 12 (P-1) n - 1
REM
REM Run started: Mon, 03 Aug 2020 18:09:08 +0100 in /lustre/scratch/uccabz1/launch_tmp/launcher_2020-08-03-15-05-41-025227
REM CASTEP 20.1 from code version af48c487+ pr-geom-scf-spinfix Tue Jun 2 15:39:59 2020 +0100
REM Functional PBE for solids (2008) Relativity Koelling-Harmon Dispersion off
REM Cut-off 300.0000 eV Grid scale 1.7500 Gmax 15.5288 1/A FBSC none
REM MP grid 4 3 2 Offset 0.000 0.000 0.000 No. kpts 12 Spacing 0.07
REM Total runtime: 8216.82 s
REM Overall efficiency: 75.6667 %
REM
REM 4Ag2SE.cell (6404a18c6b5dc90313b5c56acf317f23)
REM
REM compiler GCC version 4.9.2
REM options -cpp -iprefix /lustre/shared/ucl/apps/gcc/4.9.2/bin/../lib/gcc/x86_64-unknown-linux-gnu/4.9.2/ -mtune=corei7 -march=x86-64 -g -Og
REM COMMAND_LINE
REM seed 261483063 -636715064 -431022015 -1547488048 286122645 -1780739442 -1698480714 1153341150 1674304350 -1575186344 -1723773765 957299230
REM
REM Se 3|2.1|7|7|9|40:41:32(qc=5)
REM Ag 3|2.2|7|7|9|40U:50:41:42(qc=5)
REM 
CELL 1.54180    4.02208    7.19430    8.34296   92.20828  104.82123  108.37139
LATT -1
SFAC Se Ag 
Se     1 -0.2992209309258 -0.2285959758917 -0.1318503674719 1.0
Se     1  0.2992209309258  0.2285959758917  0.1318503674719 1.0
Se     1 -0.4876647196061  0.3044975166238 -0.3846832680259 1.0
Se     1  0.4876647196061 -0.3044975166238  0.3846832680259 1.0
Ag     2 -0.1642589537456  0.0217604640708 -0.3722248918942 1.0
Ag     2  0.1642589537456 -0.0217604640708  0.3722248918942 1.0
Ag     2 -0.4430624342829  0.1280553383015 -0.1146065139968 1.0
Ag     2  0.4430624342829 -0.1280553383015  0.1146065139968 1.0
Ag     2  0.0808467115897 -0.3186386368733 -0.3786024993185 1.0
Ag     2 -0.0808467115897  0.3186386368733  0.3786024993185 1.0
Ag     2 -0.1849399911315 -0.4249876749052  0.1385118756844 1.0
Ag     2  0.1849399911315  0.4249876749052 -0.1385118756844 1.0
END
