TITL 4Ag2Se_TETRA-200803-163525-e1614f -0.0583 232.262378 -4.61176746E+004 0 0 12 (P2) n - 1
REM
REM Run started: Mon, 03 Aug 2020 16:58:33 +0100 in /lustre/scratch/uccabz1/launch_tmp/launcher_2020-08-03-15-35-23-892736
REM CASTEP 20.1 from code version af48c487+ pr-geom-scf-spinfix Tue Jun 2 15:39:59 2020 +0100
REM Functional PBE for solids (2008) Relativity Koelling-Harmon Dispersion off
REM Cut-off 300.0000 eV Grid scale 1.7500 Gmax 15.5288 1/A FBSC none
REM MP grid 3 3 2 Offset 0.000 0.000 0.000 No. kpts 6 Spacing 0.07
REM Total runtime: 1519.48 s
REM Overall efficiency: 70.75 %
REM
REM 4Ag2Se_TETRA.cell (4020362940262d3df87d4014b41eb05e)
REM
REM compiler GCC version 4.9.2
REM options -cpp -iprefix /lustre/shared/ucl/apps/gcc/4.9.2/bin/../lib/gcc/x86_64-unknown-linux-gnu/4.9.2/ -mtune=corei7 -march=x86-64 -g -Og
REM COMMAND_LINE
REM seed 503941607 -409934173 -462112104 75916539 1339790581 -942363712 -742591269 671863759 792646518 136864587 -410295128 1739918643
REM
REM Se 3|2.1|7|7|9|40:41:32(qc=5)
REM Ag 3|2.2|7|7|9|40U:50:41:42(qc=5)
REM 
CELL 1.54180    5.69941    5.69150    7.16804   90.00000   87.31029   90.00000
LATT -1
SFAC Se Ag 
Se     1  0.3756213176173  0.3834387375967 -0.2266103606929 1.0
Se     1 -0.3756213176173  0.3834387375967  0.2266103606929 1.0
Se     1 -0.1505699915901 -0.1373420149852 -0.2265036639623 1.0
Se     1  0.1505699915901 -0.1373420149852  0.2265036639623 1.0
Ag     2  0.2559140723359  0.0734366040859 -0.4706403373980 1.0
Ag     2 -0.2559140723359  0.0734366040859  0.4706403373980 1.0
Ag     2  0.3180251461953 -0.1325422294132 -0.1219711765053 1.0
Ag     2 -0.3180251461953 -0.1325422294132  0.1219711765053 1.0
Ag     2 -0.2590738013985 -0.4296252489393 -0.4663466654165 1.0
Ag     2  0.2590738013985 -0.4296252489393  0.4663466654165 1.0
Ag     2  0.0684114365185  0.3089959516551  0.1834101604671 1.0
Ag     2 -0.0684114365185  0.3089959516551 -0.1834101604671 1.0
END
