TITL 4Ag2Se_TETRA-200803-170132-3847d1 -0.0061 239.263198 -4.61178572E+004 0 0 12 (P-1) n - 1
REM
REM Run started: Mon, 03 Aug 2020 17:43:18 +0100 in /lustre/scratch/uccabz1/launch_tmp/launcher_2020-08-03-16-01-30-967497
REM CASTEP 20.1 from code version af48c487+ pr-geom-scf-spinfix Tue Jun 2 15:39:59 2020 +0100
REM Functional PBE for solids (2008) Relativity Koelling-Harmon Dispersion off
REM Cut-off 300.0000 eV Grid scale 1.7500 Gmax 15.5288 1/A FBSC none
REM MP grid 2 2 4 Offset 0.000 0.000 0.000 No. kpts 8 Spacing 0.07
REM Total runtime: 2778.67 s
REM Overall efficiency: 81.6667 %
REM
REM 4Ag2Se_TETRA.cell (4020362940262d3df87d4014b41eb05e)
REM
REM compiler GCC version 4.9.2
REM options -cpp -iprefix /lustre/shared/ucl/apps/gcc/4.9.2/bin/../lib/gcc/x86_64-unknown-linux-gnu/4.9.2/ -mtune=corei7 -march=x86-64 -g -Og
REM COMMAND_LINE
REM seed -1571448884 -211716033 -970223994 381105905 1516908232 748965174 -1239048451 -619909973 678707306 997311276 741733986 1737117057
REM
REM Se 3|2.1|7|7|9|40:41:32(qc=5)
REM Ag 3|2.2|7|7|9|40U:50:41:42(qc=5)
REM 
CELL 1.54180    7.14137    7.36026    4.55605   87.69134   89.33109   89.70195
LATT -1
SFAC Se Ag 
Se     1  0.1297809226069 -0.2808364623536  0.0822615570359 1.0
Se     1 -0.1297809226069  0.2808364623536 -0.0822615570359 1.0
Se     1 -0.4087491642353 -0.2770715032987 -0.3537084008507 1.0
Se     1  0.4087491642353  0.2770715032987  0.3537084008507 1.0
Ag     2 -0.2636330235338 -0.1445400358073  0.1135057088553 1.0
Ag     2  0.2636330235338  0.1445400358073 -0.1135057088553 1.0
Ag     2 -0.2715852642464  0.4738920896309  0.3270985756690 1.0
Ag     2  0.2715852642464 -0.4738920896309 -0.3270985756690 1.0
Ag     2 -0.3205133378138  0.0768445487259 -0.4026549735763 1.0
Ag     2  0.3205133378138 -0.0768445487259  0.4026549735763 1.0
Ag     2 -0.0386670056879 -0.2208946975921 -0.4044081997867 1.0
Ag     2  0.0386670056879  0.2208946975921  0.4044081997867 1.0
END
