TITL 4Ag2Se_TETRA_OPT-200811-104542-554143 -0.0258 223.137744 -4.61184488E+004 0 0 12 (P1) n - 1
REM
REM Run started: Tue, 11 Aug 2020 13:09:00 +0100 in /lustre/scratch/uccabz1/launch_tmp/launcher_2020-08-11-09-45-39-894142
REM CASTEP 20.1 from code version af48c487+ pr-geom-scf-spinfix Tue Jun 2 15:39:59 2020 +0100
REM Functional PBE for solids (2008) Relativity Koelling-Harmon Dispersion off
REM Cut-off 300.0000 eV Grid scale 1.7500 Gmax 15.5288 1/A FBSC none
REM MP grid 3 3 3 Offset 0.000 0.000 0.000 No. kpts 14 Spacing 0.07
REM Total runtime: 9589.33 s
REM Overall efficiency: 95.3333 %
REM
REM 4Ag2Se_TETRA_OPT.cell (db6eaae92e6a5f18c152ebab86a92a61)
REM
REM compiler GCC version 4.9.2
REM options -cpp -iprefix /lustre/shared/ucl/apps/gcc/4.9.2/bin/../lib/gcc/x86_64-unknown-linux-gnu/4.9.2/ -mtune=corei7 -march=x86-64 -g -Og
REM COMMAND_LINE
REM seed -641134457 76785378 1194856408 476666001 -2123721446 -642879235 569709146 314121159 -861903837 -417500637 616072589 903292975
REM
REM Se 3|2.1|7|7|9|40:41:32(qc=5)
REM Ag 3|2.2|7|7|9|40U:50:41:42(qc=5)
REM 
CELL 1.54180    5.31287    6.41187    6.60495   84.07001   87.86615   85.95641
LATT -1
SFAC Se Ag 
Se     1  0.3546692238208  0.2997523450995  0.1022446851204 1.0
Se     1  0.0506845187179  0.2951558872038 -0.3256284226929 1.0
Se     1 -0.5364522266360 -0.2673944315956 -0.3007977507663 1.0
Se     1 -0.0399381588147 -0.2697017369281  0.2898062665508 1.0
Ag     2 -0.1440345200598  0.5633952795537 -0.0601152793578 1.0
Ag     2  0.1980414694645 -0.0827599996759 -0.0271214199623 1.0
Ag     2  0.4713405489415 -0.3856974243932  0.2979548981233 1.0
Ag     2 -0.1202693692097 -0.0678508050432 -0.3677892610920 1.0
Ag     2 -0.1403356183120  0.2765826457040  0.3061087986407 1.0
Ag     2 -0.3083785538704 -0.0025952234283  0.0397827278288 1.0
Ag     2  0.3866191932976  0.0359844431347  0.4147231978243 1.0
Ag     2 -0.4493541073396  0.3071431203687 -0.3098079402168 1.0
END
