TITL 4Ag2Se_TETRA_OPT-200811-110911-e9cf78 -0.1882 225.742568 -4.61182714E+004 0 0 12 (P1) n - 1
REM
REM Run started: Tue, 11 Aug 2020 12:58:55 +0100 in /lustre/scratch/uccabz1/launch_tmp/launcher_2020-08-11-10-09-09-972535
REM CASTEP 20.1 from code version af48c487+ pr-geom-scf-spinfix Tue Jun 2 15:39:59 2020 +0100
REM Functional PBE for solids (2008) Relativity Koelling-Harmon Dispersion off
REM Cut-off 300.0000 eV Grid scale 1.7500 Gmax 15.5288 1/A FBSC none
REM MP grid 4 3 2 Offset 0.000 0.000 0.000 No. kpts 12 Spacing 0.07
REM Total runtime: 7416.37 s
REM Overall efficiency: 82.3333 %
REM
REM 4Ag2Se_TETRA_OPT.cell (db6eaae92e6a5f18c152ebab86a92a61)
REM
REM compiler GCC version 4.9.2
REM options -cpp -iprefix /lustre/shared/ucl/apps/gcc/4.9.2/bin/../lib/gcc/x86_64-unknown-linux-gnu/4.9.2/ -mtune=corei7 -march=x86-64 -g -Og
REM COMMAND_LINE
REM seed -263975712 -1029468601 1498779074 -251434859 597198789 -1938511717 55947318 -403522686 2124580981 -623640989 -1754555522 -1891486387
REM
REM Se 3|2.1|7|7|9|40:41:32(qc=5)
REM Ag 3|2.2|7|7|9|40U:50:41:42(qc=5)
REM 
CELL 1.54180    4.41582    7.10474    7.24701   96.63788   88.51518   89.41291
LATT -1
SFAC Se Ag 
Se     1 -0.5968628089652 -0.2395707312989  0.2424396359285 1.0
Se     1 -0.0191491742358 -0.2755630216228 -0.1973881508721 1.0
Se     1  0.3623346748780  0.1930188213619 -0.3829081555508 1.0
Se     1 -0.1490603598221  0.2402241414861 -0.0195257377812 1.0
Ag     2  0.4387854835247 -0.0505852435205 -0.1132189358340 1.0
Ag     2  0.3764254759281  0.2367057866713  0.2204666859147 1.0
Ag     2 -0.2447695710957 -0.1422517715587 -0.4757106592777 1.0
Ag     2 -0.1337294427485  0.2438133330213 -0.5335142641056 1.0
Ag     2 -0.0983177974490 -0.4624209848932  0.2284471759508 1.0
Ag     2  0.3695205679023 -0.4502627826777 -0.4691435319777 1.0
Ag     2  0.4167359953412  0.5004033185572 -0.0756231031916 1.0
Ag     2 -0.0831290432579 -0.0549766655259  0.1627666407967 1.0
END
