TITL 4Ag2Se_TETRA-200803-162148-ce7d50 -0.0307 229.248860 -4.61180855E+004 0 0 12 (R3) n - 1
REM
REM Run started: Mon, 03 Aug 2020 16:46:29 +0100 in /lustre/scratch/uccabz1/launch_tmp/launcher_2020-08-03-15-21-46-444430
REM CASTEP 20.1 from code version af48c487+ pr-geom-scf-spinfix Tue Jun 2 15:39:59 2020 +0100
REM Functional PBE for solids (2008) Relativity Koelling-Harmon Dispersion off
REM Cut-off 300.0000 eV Grid scale 1.7500 Gmax 15.5288 1/A FBSC none
REM MP grid 3 3 3 Offset 0.000 0.000 0.000 No. kpts 6 Spacing 0.07
REM Total runtime: 1627.77 s
REM Overall efficiency: 64.5833 %
REM
REM 4Ag2Se_TETRA.cell (4020362940262d3df87d4014b41eb05e)
REM
REM compiler GCC version 4.9.2
REM options -cpp -iprefix /lustre/shared/ucl/apps/gcc/4.9.2/bin/../lib/gcc/x86_64-unknown-linux-gnu/4.9.2/ -mtune=corei7 -march=x86-64 -g -Og
REM COMMAND_LINE
REM seed 1227923653 -1878331859 1776259299 -1274440892 -266157141 -1145805498 -2119152741 -26473447 -811567275 -11068991 1394623051 -890132221
REM
REM Se 3|2.1|7|7|9|40:41:32(qc=5)
REM Ag 3|2.2|7|7|9|40U:50:41:42(qc=5)
REM 
CELL 1.54180    6.12126    6.12126    6.12126   88.95340   88.95340   88.95340
LATT -1
SFAC Se Ag 
Se     1 -0.0228901830721  0.1057277350806 -0.4333768829671 1.0
Se     1  0.1057277350806 -0.4333768829671 -0.0228901830721 1.0
Se     1 -0.4333768829671 -0.0228901830721  0.1057277350806 1.0
Se     1  0.4956578197010  0.4956578197010  0.4956578197010 1.0
Ag     2 -0.4009032725192 -0.0868989281948 -0.4391475320828 1.0
Ag     2 -0.0868989281948 -0.4391475320828 -0.4009032725192 1.0
Ag     2 -0.4391475320828 -0.4009032725192 -0.0868989281948 1.0
Ag     2  0.2065855263878 -0.2047216107446  0.3380944018657 1.0
Ag     2 -0.2047216107446  0.3380944018657  0.2065855263878 1.0
Ag     2  0.3380944018657  0.2065855263878 -0.2047216107446 1.0
Ag     2 -0.0241203111703 -0.0241203111703 -0.0241203111703 1.0
Ag     2  0.2473972377159  0.2473972377159  0.2473972377159 1.0
END
