TITL 4Ag2Se_TETRA_OPT-200811-111549-059af6 0.0000 221.167966 -4.61183859E+004 0 0 12 (P1) n - 1
REM
REM Run started: Tue, 11 Aug 2020 13:21:53 +0100 in /lustre/scratch/uccabz1/launch_tmp/launcher_2020-08-11-10-15-47-402334
REM CASTEP 20.1 from code version af48c487+ pr-geom-scf-spinfix Tue Jun 2 15:39:59 2020 +0100
REM Functional PBE for solids (2008) Relativity Koelling-Harmon Dispersion off
REM Cut-off 300.0000 eV Grid scale 1.7500 Gmax 15.5288 1/A FBSC none
REM MP grid 4 2 2 Offset 0.000 0.000 0.000 No. kpts 8 Spacing 0.07
REM Total runtime: 7714.18 s
REM Overall efficiency: 92 %
REM
REM 4Ag2Se_TETRA_OPT.cell (db6eaae92e6a5f18c152ebab86a92a61)
REM
REM compiler GCC version 4.9.2
REM options -cpp -iprefix /lustre/shared/ucl/apps/gcc/4.9.2/bin/../lib/gcc/x86_64-unknown-linux-gnu/4.9.2/ -mtune=corei7 -march=x86-64 -g -Og
REM COMMAND_LINE
REM seed -774837866 -1119442814 1748318139 -403241187 -1936961299 497308602 -566240159 -600816996 2035337280 1239220008 1855919581 -753402321
REM
REM Se 3|2.1|7|7|9|40:41:32(qc=5)
REM Ag 3|2.2|7|7|9|40U:50:41:42(qc=5)
REM 
CELL 1.54180    4.22991    7.20424    7.51041   87.12093  104.60161   89.85107
LATT -1
SFAC Se Ag 
Se     1  0.2084620134291 -0.1498808212857  0.2191499474917 1.0
Se     1  0.4582060821904  0.0428681095203 -0.3476465679736 1.0
Se     1 -0.3415556131883  0.2926832315394  0.1182362649868 1.0
Se     1 -0.0516027600284  0.4332105902998 -0.3726656952199 1.0
Ag     2  0.1170245446608 -0.4547371856811  0.0335740832165 1.0
Ag     2  0.3020148262703  0.3371534201078  0.3815887180968 1.0
Ag     2 -0.0155129609905 -0.1871457460039 -0.2886177810463 1.0
Ag     2 -0.1866337899953  0.0433776244706  0.3945756436353 1.0
Ag     2  0.0718010254829  0.1537270705992 -0.0882447138035 1.0
Ag     2 -0.3917725854583 -0.1187984136948 -0.0123094588095 1.0
Ag     2  0.5084782455177 -0.4323810490927 -0.2284669452167 1.0
Ag     2 -0.2545497278905 -0.3714685307789  0.3120162046423 1.0
END
