TITL 4Ag2SE-200803-160656-be5909 -0.0325 223.843268 -4.61182447E+004 0 0 12 (Pbcm) n - 1
REM
REM Run started: Mon, 03 Aug 2020 16:20:25 +0100 in /lustre/scratch/uccabz1/launch_tmp/launcher_2020-08-03-15-06-55-112691
REM CASTEP 20.1 from code version af48c487+ pr-geom-scf-spinfix Tue Jun 2 15:39:59 2020 +0100
REM Functional PBE for solids (2008) Relativity Koelling-Harmon Dispersion off
REM Cut-off 300.0000 eV Grid scale 1.7500 Gmax 15.5288 1/A FBSC none
REM MP grid 4 3 2 Offset 0.000 0.000 0.000 No. kpts 4 Spacing 0.07
REM Total runtime: 888.9 s
REM Overall efficiency: 72.5 %
REM
REM 4Ag2SE.cell (6404a18c6b5dc90313b5c56acf317f23)
REM
REM compiler GCC version 4.9.2
REM options -cpp -iprefix /lustre/shared/ucl/apps/gcc/4.9.2/bin/../lib/gcc/x86_64-unknown-linux-gnu/4.9.2/ -mtune=corei7 -march=x86-64 -g -Og
REM COMMAND_LINE
REM seed -1017239980 1792973507 366362005 1757910585 -1226482902 881230309 165270650 -379755802 2009803469 178107287 -513752027 -1051587487
REM
REM Se 3|2.1|7|7|9|40:41:32(qc=5)
REM Ag 3|2.2|7|7|9|40U:50:41:42(qc=5)
REM 
CELL 1.54180    4.19293    6.43509    8.29605   90.00000   90.00000   90.00000
LATT -1
SFAC Se Ag 
Se     1 -0.2500000000000  0.2915041241677  0.1756815032174 1.0
Se     1  0.2500000000000  0.2915041241677 -0.1756815032174 1.0
Se     1  0.2500000000000 -0.2915041241677  0.3243184967826 1.0
Se     1 -0.2500000000000 -0.2915041241677 -0.3243184967826 1.0
Ag     2  0.2500000000000 -0.3006749472931 -0.1138143320518 1.0
Ag     2 -0.2500000000000 -0.3006749472931  0.1138143320518 1.0
Ag     2 -0.2500000000000  0.3006749472931 -0.3861856679482 1.0
Ag     2  0.2500000000000  0.3006749472931  0.3861856679482 1.0
Ag     2  0.2500000000000 -0.0283260596928 -0.3875065649895 1.0
Ag     2 -0.2500000000000 -0.0283260596928  0.3875065649895 1.0
Ag     2 -0.2500000000000  0.0283260596928 -0.1124934350105 1.0
Ag     2  0.2500000000000  0.0283260596928  0.1124934350105 1.0
END
