TITL 4Ag2Se_TETRA_OPT-200811-094233-30857d 0.0041 212.853516 -4.61176728E+004 0 0 12 (Pccm) n - 1
REM
REM Run started: Tue, 11 Aug 2020 10:26:52 +0100 in /lustre/scratch/uccabz1/launch_tmp/launcher_2020-08-11-08-42-32-102785
REM CASTEP 20.1 from code version af48c487+ pr-geom-scf-spinfix Tue Jun 2 15:39:59 2020 +0100
REM Functional PBE for solids (2008) Relativity Koelling-Harmon Dispersion off
REM Cut-off 300.0000 eV Grid scale 1.7500 Gmax 15.5288 1/A FBSC none
REM MP grid 3 2 3 Offset 0.000 0.000 0.000 No. kpts 4 Spacing 0.07
REM Total runtime: 2708.35 s
REM Overall efficiency: 77.1 %
REM
REM 4Ag2Se_TETRA_OPT.cell (db6eaae92e6a5f18c152ebab86a92a61)
REM
REM compiler GCC version 4.9.2
REM options -cpp -iprefix /lustre/shared/ucl/apps/gcc/4.9.2/bin/../lib/gcc/x86_64-unknown-linux-gnu/4.9.2/ -mtune=corei7 -march=x86-64 -g -Og
REM COMMAND_LINE
REM seed -1142428821 1939861354 -1798253659 1823462391 1585759836 -711746310 709327960 -1643421962 -1815209292 -1478606312 625553855 -1775870003
REM
REM Se 3|2.1|7|7|9|40:41:32(qc=5)
REM Ag 3|2.2|7|7|9|40U:50:41:42(qc=5)
REM 
CELL 1.54180    5.06277    8.28337    5.07558   90.00000   90.00000   90.00000
LATT -1
SFAC Se Ag 
Se     1  0.2321674360852  0.2498967064942  0.2602724272608 1.0
Se     1 -0.2321674360852  0.2498967064942 -0.2602724272608 1.0
Se     1 -0.2321674360852 -0.2498967064942  0.2602724272608 1.0
Se     1  0.2321674360852 -0.2498967064942 -0.2602724272608 1.0
Ag     2  0.2556310655940  0.4180590456243 -0.2458800638439 1.0
Ag     2 -0.2556310655940  0.4180590456243  0.2458800638439 1.0
Ag     2 -0.2556310655940 -0.4180590456243 -0.2458800638439 1.0
Ag     2  0.2556310655940 -0.4180590456243  0.2458800638439 1.0
Ag     2  0.2546638791010  0.0807648384429 -0.2464367759780 1.0
Ag     2 -0.2546638791010  0.0807648384429  0.2464367759780 1.0
Ag     2 -0.2546638791010 -0.0807648384429 -0.2464367759780 1.0
Ag     2  0.2546638791010 -0.0807648384429  0.2464367759780 1.0
END
