TITL 4Ag2SE-200803-155107-d457b8 -0.0582 217.115314 -4.61180630E+004 0 0 12 (P-1) n - 1
REM
REM Run started: Mon, 03 Aug 2020 16:27:34 +0100 in /lustre/scratch/uccabz1/launch_tmp/launcher_2020-08-03-14-51-05-223813
REM CASTEP 20.1 from code version af48c487+ pr-geom-scf-spinfix Tue Jun 2 15:39:59 2020 +0100
REM Functional PBE for solids (2008) Relativity Koelling-Harmon Dispersion off
REM Cut-off 300.0000 eV Grid scale 1.7500 Gmax 15.5288 1/A FBSC none
REM MP grid 4 3 2 Offset 0.000 0.000 0.000 No. kpts 12 Spacing 0.07
REM Total runtime: 2303.86 s
REM Overall efficiency: 72.4286 %
REM
REM 4Ag2SE.cell (6404a18c6b5dc90313b5c56acf317f23)
REM
REM compiler GCC version 4.9.2
REM options -cpp -iprefix /lustre/shared/ucl/apps/gcc/4.9.2/bin/../lib/gcc/x86_64-unknown-linux-gnu/4.9.2/ -mtune=corei7 -march=x86-64 -g -Og
REM COMMAND_LINE
REM seed -450967249 1663541849 363466227 1395198054 -1531190923 486649194 -1500568797 -92264992 -1826692698 -1598065228 -922588302 471333824
REM
REM Se 3|2.1|7|7|9|40:41:32(qc=5)
REM Ag 3|2.2|7|7|9|40U:50:41:42(qc=5)
REM 
CELL 1.54180    3.86933    6.36163    9.70722  106.88958   88.67498  107.80914
LATT -1
SFAC Se Ag 
Se     1  0.4115117764981  0.2440866342804 -0.1326866216933 1.0
Se     1 -0.4115117764981 -0.2440866342804  0.1326866216933 1.0
Se     1  0.2131136551882  0.3961501471277  0.3447322912610 1.0
Se     1 -0.2131136551882 -0.3961501471277 -0.3447322912610 1.0
Ag     2  0.8735021690915  0.7438622213091  0.3996992752710 1.0
Ag     2 -0.8735021690915 -0.7438622213091 -0.3996992752710 1.0
Ag     2 -0.2554543817578 -0.0602539049522 -0.1121912415070 1.0
Ag     2  0.2554543817578  0.0602539049522  0.1121912415070 1.0
Ag     2  0.9064541647331  0.4015738584945  0.1100836881201 1.0
Ag     2 -0.9064541647331 -0.4015738584945 -0.1100836881201 1.0
Ag     2  0.4445554975904 -0.0850051668624 -0.3803606998072 1.0
Ag     2 -0.4445554975904  0.0850051668624  0.3803606998072 1.0
END
