TITL 4Ag2SE-200803-160652-5426c8 -0.0578 218.580509 -4.61186268E+004 0 0 12 (C2/c) n - 1
REM
REM Run started: Mon, 03 Aug 2020 16:58:20 +0100 in /lustre/scratch/uccabz1/launch_tmp/launcher_2020-08-03-15-06-49-974704
REM CASTEP 20.1 from code version af48c487+ pr-geom-scf-spinfix Tue Jun 2 15:39:59 2020 +0100
REM Functional PBE for solids (2008) Relativity Koelling-Harmon Dispersion off
REM Cut-off 300.0000 eV Grid scale 1.7500 Gmax 15.5288 1/A FBSC none
REM MP grid 3 3 3 Offset 0.000 0.000 0.000 No. kpts 10 Spacing 0.07
REM Total runtime: 3445.67 s
REM Overall efficiency: 92.75 %
REM
REM 4Ag2SE.cell (6404a18c6b5dc90313b5c56acf317f23)
REM
REM compiler GCC version 4.9.2
REM options -cpp -iprefix /lustre/shared/ucl/apps/gcc/4.9.2/bin/../lib/gcc/x86_64-unknown-linux-gnu/4.9.2/ -mtune=corei7 -march=x86-64 -g -Og
REM COMMAND_LINE
REM seed -2142027524 941470407 183912473 652533428 -1225239311 1627750509 1718308310 1370056136 527155192 857392076 569497530 516763509
REM
REM Se 3|2.1|7|7|9|40:41:32(qc=5)
REM Ag 3|2.2|7|7|9|40U:50:41:42(qc=5)
REM 
CELL 1.54180    5.51443    5.73145    7.76546  106.51162  110.79723   90.00000
LATT -1
SFAC Se Ag 
Se     1 -0.0463781889097  0.1424104413189  0.4392986663701 1.0
Se     1  0.4856769552798 -0.3575895586811  0.4392986663701 1.0
Se     1  0.1600600836780 -0.3589556185428 -0.1460636493612 1.0
Se     1 -0.3061236330392  0.1410443814572 -0.1460636493612 1.0
Ag     2 -0.3620373866242 -0.3808637183555 -0.1958541210083 1.0
Ag     2  0.1661833656159  0.1191362816445 -0.1958541210083 1.0
Ag     2  0.0534914669018 -0.1888795678471  0.1699915509981 1.0
Ag     2  0.1165001840963  0.3111204321529  0.1699915509981 1.0
Ag     2  0.0078433341943 -0.3311106623043  0.4896441733115 1.0
Ag     2  0.4818009391172  0.1688893376957  0.4896441733115 1.0
Ag     2 -0.4712457217074 -0.0214125742692  0.1225137796899 1.0
Ag     2 -0.4062403986027 -0.5214125742692  0.1225137796899 1.0
END
