TITL 4Ag2Se_TETRA_OPT-200811-094952-d90b36 -0.0429 221.555248 -4.61185218E+004 0 0 12 (Pc) n - 1
REM
REM Run started: Tue, 11 Aug 2020 10:19:17 +0100 in /lustre/scratch/uccabz1/launch_tmp/launcher_2020-08-11-08-49-51-310439
REM CASTEP 20.1 from code version af48c487+ pr-geom-scf-spinfix Tue Jun 2 15:39:59 2020 +0100
REM Functional PBE for solids (2008) Relativity Koelling-Harmon Dispersion off
REM Cut-off 300.0000 eV Grid scale 1.7500 Gmax 15.5288 1/A FBSC none
REM MP grid 3 3 3 Offset 0.000 0.000 0.000 No. kpts 10 Spacing 0.07
REM Total runtime: 2310.22 s
REM Overall efficiency: 91.6667 %
REM
REM 4Ag2Se_TETRA_OPT.cell (db6eaae92e6a5f18c152ebab86a92a61)
REM
REM compiler GCC version 4.9.2
REM options -cpp -iprefix /lustre/shared/ucl/apps/gcc/4.9.2/bin/../lib/gcc/x86_64-unknown-linux-gnu/4.9.2/ -mtune=corei7 -march=x86-64 -g -Og
REM COMMAND_LINE
REM seed 266154114 1136192344 -1078843708 -1129504678 2001875136 -468506359 -1294368108 -684906710 -877897015 -819906193 1277722762 -508997518
REM
REM Se 3|2.1|7|7|9|40:41:32(qc=5)
REM Ag 3|2.2|7|7|9|40U:50:41:42(qc=5)
REM 
CELL 1.54180    5.30971    6.45681    6.48984   95.27096   90.00000   90.00000
LATT -1
SFAC Se Ag 
Se     1  0.2859676077694 -0.3244861225614 -0.3769074532685 1.0
Se     1 -0.2859676077694 -0.3244861225614  0.1230925467315 1.0
Se     1  0.2866430428568  0.2639471454288  0.2437371036403 1.0
Se     1 -0.2866430428568  0.2639471454288 -0.2562628963597 1.0
Ag     2 -0.0894582614209 -0.1023182547988 -0.1860802654448 1.0
Ag     2  0.0894582614209 -0.1023182547988  0.3139197345552 1.0
Ag     2  0.4028708597943 -0.0329864082425 -0.0504660568133 1.0
Ag     2 -0.4028708597943 -0.0329864082425  0.4495339431867 1.0
Ag     2  0.1972240746459 -0.4412359010166 -0.0007896488633 1.0
Ag     2 -0.1972240746459 -0.4412359010166  0.4992103511367 1.0
Ag     2  0.2021015402268  0.2369843411906 -0.3441047792504 1.0
Ag     2 -0.2021015402268  0.2369843411906  0.1558952207496 1.0
END
