TITL 4Ag2SE-200803-155102-cb6f47 0.0771 230.312622 -4.61180856E+004 0 0 12 (Cc) n - 1
REM
REM Run started: Mon, 03 Aug 2020 17:02:57 +0100 in /lustre/scratch/uccabz1/launch_tmp/launcher_2020-08-03-14-50-59-468927
REM CASTEP 20.1 from code version af48c487+ pr-geom-scf-spinfix Tue Jun 2 15:39:59 2020 +0100
REM Functional PBE for solids (2008) Relativity Koelling-Harmon Dispersion off
REM Cut-off 300.0000 eV Grid scale 1.7500 Gmax 15.5288 1/A FBSC none
REM MP grid 3 3 3 Offset 0.000 0.000 0.000 No. kpts 10 Spacing 0.07
REM Total runtime: 4510.96 s
REM Overall efficiency: 94.2222 %
REM
REM 4Ag2SE.cell (6404a18c6b5dc90313b5c56acf317f23)
REM
REM compiler GCC version 4.9.2
REM options -cpp -iprefix /lustre/shared/ucl/apps/gcc/4.9.2/bin/../lib/gcc/x86_64-unknown-linux-gnu/4.9.2/ -mtune=corei7 -march=x86-64 -g -Og
REM COMMAND_LINE
REM seed 1813023828 943915429 1456731049 -952388198 -558322249 -43214745 186060074 417663216 1603027327 -404757355 -1464545755 592333546
REM
REM Se 3|2.1|7|7|9|40:41:32(qc=5)
REM Ag 3|2.2|7|7|9|40U:50:41:42(qc=5)
REM 
CELL 1.54180    6.50934    6.50934    6.93729  108.72514  108.72514  109.48171
LATT -1
SFAC Se Ag 
Se     1  0.0562315396978  0.1959849923891  0.0280901005237 1.0
Se     1  0.1959849923891  0.0562315396978  0.5280901005237 1.0
Se     1 -0.1903442573287 -0.4858188477434 -0.3735660569190 1.0
Se     1 -0.4858188477434 -0.1903442573287  0.1264339430810 1.0
Ag     2 -0.2254891898102 -0.0912622536100 -0.4292258130283 1.0
Ag     2 -0.0912622536100 -0.2254891898102  0.0707741869717 1.0
Ag     2  0.2636741058060 -0.0953787626440 -0.1655801460233 1.0
Ag     2 -0.0953787626440  0.2636741058060  0.3344198539767 1.0
Ag     2 -0.3305124627457  0.2444193195304 -0.1651566725067 1.0
Ag     2  0.2444193195304 -0.3305124627457  0.3348433274933 1.0
Ag     2  0.4244290216164 -0.4517067051579 -0.3100208120464 1.0
Ag     2 -0.4517067051579  0.4244290216164  0.1899791879536 1.0
END
