TITL 4Ag2SE-200803-160659-159329 -0.0605 225.348820 -4.61183749E+004 0 0 12 (Cc) n - 1
REM
REM Run started: Mon, 03 Aug 2020 17:52:39 +0100 in /lustre/scratch/uccabz1/launch_tmp/launcher_2020-08-03-15-06-57-802840
REM CASTEP 20.1 from code version af48c487+ pr-geom-scf-spinfix Tue Jun 2 15:39:59 2020 +0100
REM Functional PBE for solids (2008) Relativity Koelling-Harmon Dispersion off
REM Cut-off 300.0000 eV Grid scale 1.7500 Gmax 15.5288 1/A FBSC none
REM MP grid 4 3 3 Offset 0.000 0.000 0.000 No. kpts 12 Spacing 0.07
REM Total runtime: 6507.74 s
REM Overall efficiency: 72 %
REM
REM 4Ag2SE.cell (6404a18c6b5dc90313b5c56acf317f23)
REM
REM compiler GCC version 4.9.2
REM options -cpp -iprefix /lustre/shared/ucl/apps/gcc/4.9.2/bin/../lib/gcc/x86_64-unknown-linux-gnu/4.9.2/ -mtune=corei7 -march=x86-64 -g -Og
REM COMMAND_LINE
REM seed 1400580888 593838395 1644246261 111249152 -989837903 -841268601 2052183241 1475669352 787765570 -1062418712 -388355170 -1273873876
REM
REM Se 3|2.1|7|7|9|40:41:32(qc=5)
REM Ag 3|2.2|7|7|9|40U:50:41:42(qc=5)
REM 
CELL 1.54180    4.99516    7.70180    7.70180  112.54402  108.36273  108.36273
LATT -1
SFAC Se Ag 
Se     1 -0.1708480966207 -0.1430234999939  0.1599317250745 1.0
Se     1  0.3291519033793  0.1599317250745 -0.1430234999939 1.0
Se     1  0.2286815942286 -0.3656028460323  0.4284597631709 1.0
Se     1 -0.2713184057714  0.4284597631709 -0.3656028460323 1.0
Ag     2 -0.7630395193268 -0.1362037353375 -0.0106408873260 1.0
Ag     2 -0.2630395193268 -0.0106408873260 -0.1362037353375 1.0
Ag     2  0.8653181871539  0.2266250502977  0.3336197947103 1.0
Ag     2  0.3653181871539  0.3336197947103  0.2266250502977 1.0
Ag     2  0.4726732225739  0.0135727492210  0.4671389969092 1.0
Ag     2  0.9726732225739  0.4671389969092  0.0135727492210 1.0
Ag     2 -0.1633473880089 -0.2012510264111  0.4972205157173 1.0
Ag     2  0.3366526119911  0.4972205157173 -0.2012510264111 1.0
END
