TITL 4Ag2SE-200803-155107-a20be8 0.0114 223.792519 -4.61186938E+004 0 0 12 (Pc) n - 1
REM
REM Run started: Mon, 03 Aug 2020 17:10:14 +0100 in /lustre/scratch/uccabz1/launch_tmp/launcher_2020-08-03-14-51-05-222613
REM CASTEP 20.1 from code version af48c487+ pr-geom-scf-spinfix Tue Jun 2 15:39:59 2020 +0100
REM Functional PBE for solids (2008) Relativity Koelling-Harmon Dispersion off
REM Cut-off 300.0000 eV Grid scale 1.7500 Gmax 15.5288 1/A FBSC none
REM MP grid 3 3 3 Offset 0.000 0.000 0.000 No. kpts 10 Spacing 0.07
REM Total runtime: 5228.6 s
REM Overall efficiency: 85 %
REM
REM 4Ag2SE.cell (6404a18c6b5dc90313b5c56acf317f23)
REM
REM compiler GCC version 4.9.2
REM options -cpp -iprefix /lustre/shared/ucl/apps/gcc/4.9.2/bin/../lib/gcc/x86_64-unknown-linux-gnu/4.9.2/ -mtune=corei7 -march=x86-64 -g -Og
REM COMMAND_LINE
REM seed -532818645 891493737 534803285 -2130944568 1323296289 1194169185 -681896348 695404265 -939408427 -500642749 1185156913 -1598080942
REM
REM Se 3|2.1|7|7|9|40:41:32(qc=5)
REM Ag 3|2.2|7|7|9|40U:50:41:42(qc=5)
REM 
CELL 1.54180    4.89677    6.89111    6.63226   90.00000   90.00000   89.52664
LATT -1
SFAC Se Ag 
Se     1 -0.3381180730209 -0.3799185939161 -0.3041007941935 1.0
Se     1  0.1618819269791 -0.3799185939161  0.3041007941935 1.0
Se     1  0.1447470883881  0.2101336544839 -0.1977110895294 1.0
Se     1 -0.3552529116119  0.2101336544839  0.1977110895294 1.0
Ag     2  0.2848220643011 -0.0583429258626  0.1071522915898 1.0
Ag     2 -0.2151779356989 -0.0583429258626 -0.1071522915898 1.0
Ag     2 -0.2039862194631 -0.1105352578690  0.3887279562084 1.0
Ag     2  0.2960137805369 -0.1105352578690 -0.3887279562084 1.0
Ag     2 -0.3370186016329 -0.4065140973515  0.1082918505379 1.0
Ag     2  0.1629813983671 -0.4065140973515 -0.1082918505379 1.0
Ag     2 -0.3533717585724  0.2352612205154 -0.3913505295265 1.0
Ag     2  0.1466282414276  0.2352612205154  0.3913505295265 1.0
END
