TITL 4Ag2Se_TETRA_OPT-200811-114930-2abccf -0.0088 223.762293 -4.61186989E+004 0 0 12 (Pca21) n - 1
REM
REM Run started: Tue, 11 Aug 2020 13:08:36 +0100 in /lustre/scratch/uccabz1/launch_tmp/launcher_2020-08-11-10-49-28-816725
REM CASTEP 20.1 from code version af48c487+ pr-geom-scf-spinfix Tue Jun 2 15:39:59 2020 +0100
REM Functional PBE for solids (2008) Relativity Koelling-Harmon Dispersion off
REM Cut-off 300.0000 eV Grid scale 1.7500 Gmax 15.5288 1/A FBSC none
REM MP grid 3 3 3 Offset 0.000 0.000 0.000 No. kpts 8 Spacing 0.07
REM Total runtime: 4914.62 s
REM Overall efficiency: 87.2727 %
REM
REM 4Ag2Se_TETRA_OPT.cell (db6eaae92e6a5f18c152ebab86a92a61)
REM
REM compiler GCC version 4.9.2
REM options -cpp -iprefix /lustre/shared/ucl/apps/gcc/4.9.2/bin/../lib/gcc/x86_64-unknown-linux-gnu/4.9.2/ -mtune=corei7 -march=x86-64 -g -Og
REM COMMAND_LINE
REM seed -731515910 -1819070890 -1279973986 -1817194272 -1717741328 -1185909268 -1817483477 -1519677331 -999508435 36510079 474210193 1100061088
REM
REM Se 3|2.1|7|7|9|40:41:32(qc=5)
REM Ag 3|2.2|7|7|9|40U:50:41:42(qc=5)
REM 
CELL 1.54180    4.88998    6.64106    6.89038   90.00000   90.00000   90.00000
LATT -1
SFAC Se Ag 
Se     1 -0.2261384859762  0.4471529967697 -0.2953628348888 1.0
Se     1  0.2738615140238 -0.4471529967697  0.2953628348888 1.0
Se     1 -0.2261384859762 -0.0528470032303  0.2953628348888 1.0
Se     1  0.2738615140238  0.0528470032303 -0.2953628348888 1.0
Ag     2 -0.2216747317870 -0.1423004814436 -0.3204184236498 1.0
Ag     2  0.2783252682130  0.1423004814436  0.3204184236498 1.0
Ag     2 -0.2216747317870  0.3576995185564  0.3204184236498 1.0
Ag     2  0.2783252682130 -0.3576995185564 -0.3204184236498 1.0
Ag     2 -0.0883338822368 -0.3595947033584  0.0265295817974 1.0
Ag     2  0.4116661177632  0.3595947033584 -0.0265295817974 1.0
Ag     2 -0.0883338822368  0.1404052966416 -0.0265295817974 1.0
Ag     2  0.4116661177632 -0.1404052966416  0.0265295817974 1.0
END
