TITL 4Ag2Se_TETRA-200803-161654-1870f2 -0.0063 232.158230 -4.61181663E+004 0 0 12 (R3) n - 1
REM
REM Run started: Mon, 03 Aug 2020 16:39:44 +0100 in /lustre/scratch/uccabz1/launch_tmp/launcher_2020-08-03-15-16-52-329824
REM CASTEP 20.1 from code version af48c487+ pr-geom-scf-spinfix Tue Jun 2 15:39:59 2020 +0100
REM Functional PBE for solids (2008) Relativity Koelling-Harmon Dispersion off
REM Cut-off 300.0000 eV Grid scale 1.7500 Gmax 15.5288 1/A FBSC none
REM MP grid 3 3 3 Offset 0.000 0.000 0.000 No. kpts 6 Spacing 0.07
REM Total runtime: 1504.45 s
REM Overall efficiency: 65.0833 %
REM
REM 4Ag2Se_TETRA.cell (4020362940262d3df87d4014b41eb05e)
REM
REM compiler GCC version 4.9.2
REM options -cpp -iprefix /lustre/shared/ucl/apps/gcc/4.9.2/bin/../lib/gcc/x86_64-unknown-linux-gnu/4.9.2/ -mtune=corei7 -march=x86-64 -g -Og
REM COMMAND_LINE
REM seed 395017761 -1090740277 460315706 -199919278 1767694682 -1243593552 296961347 1944913965 -951535312 1773664245 436477412 -867754275
REM
REM Se 3|2.1|7|7|9|40:41:32(qc=5)
REM Ag 3|2.2|7|7|9|40U:50:41:42(qc=5)
REM 
CELL 1.54180    6.14604    6.14604    6.14604   89.90262   89.90262   89.90262
LATT -1
SFAC Se Ag 
Se     1 -0.3521926474468  0.2367238003807 -0.2617598965788 1.0
Se     1  0.2367238003807 -0.2617598965788 -0.3521926474468 1.0
Se     1 -0.2617598965788 -0.3521926474468  0.2367238003807 1.0
Se     1  0.1602992002577  0.1602992002577  0.1602992002577 1.0
Ag     2  0.4438539876498 -0.1494343279476  0.0213131375541 1.0
Ag     2 -0.1494343279476  0.0213131375541  0.4438539876498 1.0
Ag     2  0.0213131375541  0.4438539876498 -0.1494343279476 1.0
Ag     2  0.2721674538224  0.1712335845761 -0.4316056302449 1.0
Ag     2  0.1712335845761 -0.4316056302449  0.2721674538224 1.0
Ag     2 -0.4316056302449  0.2721674538224  0.1712335845761 1.0
Ag     2 -0.3424642486879 -0.3424642486879 -0.3424642486879 1.0
Ag     2 -0.0834278133349 -0.0834278133349 -0.0834278133349 1.0
END
