TITL 4Ag2Se_TETRA-200803-161509-ced8da -0.0133 229.420200 -4.61179191E+004 0 0 12 (C2) n - 1
REM
REM Run started: Mon, 03 Aug 2020 17:09:15 +0100 in /lustre/scratch/uccabz1/launch_tmp/launcher_2020-08-03-15-15-08-038283
REM CASTEP 20.1 from code version af48c487+ pr-geom-scf-spinfix Tue Jun 2 15:39:59 2020 +0100
REM Functional PBE for solids (2008) Relativity Koelling-Harmon Dispersion off
REM Cut-off 300.0000 eV Grid scale 1.7500 Gmax 15.5288 1/A FBSC none
REM MP grid 4 4 2 Offset 0.000 0.000 0.000 No. kpts 10 Spacing 0.07
REM Total runtime: 3578.08 s
REM Overall efficiency: 92 %
REM
REM 4Ag2Se_TETRA.cell (4020362940262d3df87d4014b41eb05e)
REM
REM compiler GCC version 4.9.2
REM options -cpp -iprefix /lustre/shared/ucl/apps/gcc/4.9.2/bin/../lib/gcc/x86_64-unknown-linux-gnu/4.9.2/ -mtune=corei7 -march=x86-64 -g -Og
REM COMMAND_LINE
REM seed -765988614 -384101008 748119998 1380441814 -253275035 -715343218 -1249706375 -1875225447 725242431 -1010648711 -2126768348 -357727137
REM
REM Se 3|2.1|7|7|9|40:41:32(qc=5)
REM Ag 3|2.2|7|7|9|40U:50:41:42(qc=5)
REM 
CELL 1.54180    4.07401    4.07401   13.92320   85.86854   85.86854   86.05007
LATT -1
SFAC Se Ag 
Se     1  0.2413030689850 -0.4134617386121 -0.3526127505729 1.0
Se     1  0.4134617386121 -0.2413030689850  0.3526127505729 1.0
Se     1 -0.2825043090081 -0.0700349678392 -0.1038306051980 1.0
Se     1  0.0700349678392  0.2825043090081  0.1038306051980 1.0
Ag     2 -0.2304971803378  0.1593907350622 -0.3570321946589 1.0
Ag     2 -0.1593907350622  0.2304971803378  0.3570321946589 1.0
Ag     2 -0.0326217078995 -0.2459506889674  0.2212734662058 1.0
Ag     2  0.2459506889674  0.0326217078995 -0.2212734662058 1.0
Ag     2 -0.1736867831140 -0.3074126709664  0.5012941850937 1.0
Ag     2  0.3074126709664  0.1736867831140 -0.5012941850937 1.0
Ag     2 -0.4834276745301 -0.2526240545816  0.0809183209751 1.0
Ag     2  0.2526240545816  0.4834276745301 -0.0809183209751 1.0
END
