TITL 4Ag2Se_TETRA-200803-170145-70b6f1 -0.0087 232.812502 -4.61182967E+004 0 0 12 (P-1) n - 1
REM
REM Run started: Mon, 03 Aug 2020 18:04:44 +0100 in /lustre/scratch/uccabz1/launch_tmp/launcher_2020-08-03-16-01-43-224788
REM CASTEP 20.1 from code version af48c487+ pr-geom-scf-spinfix Tue Jun 2 15:39:59 2020 +0100
REM Functional PBE for solids (2008) Relativity Koelling-Harmon Dispersion off
REM Cut-off 300.0000 eV Grid scale 1.7500 Gmax 15.5288 1/A FBSC none
REM MP grid 4 4 2 Offset 0.000 0.000 0.000 No. kpts 16 Spacing 0.07
REM Total runtime: 4175.83 s
REM Overall efficiency: 92.6667 %
REM
REM 4Ag2Se_TETRA.cell (4020362940262d3df87d4014b41eb05e)
REM
REM compiler GCC version 4.9.2
REM options -cpp -iprefix /lustre/shared/ucl/apps/gcc/4.9.2/bin/../lib/gcc/x86_64-unknown-linux-gnu/4.9.2/ -mtune=corei7 -march=x86-64 -g -Og
REM COMMAND_LINE
REM seed 465887682 -1225989312 -2046755563 1998942780 -1140589408 136834152 1073793749 459485296 311393456 -1534865860 -2120366694 239943386
REM
REM Se 3|2.1|7|7|9|40:41:32(qc=5)
REM Ag 3|2.2|7|7|9|40U:50:41:42(qc=5)
REM 
CELL 1.54180    4.20907    4.21651   13.11832   89.93594   90.13976   89.63881
LATT -1
SFAC Se Ag 
Se     1  0.2863996492060 -0.2505369712527  0.1267403688454 1.0
Se     1 -0.2863996492060  0.2505369712527 -0.1267403688454 1.0
Se     1 -0.2159923472907  0.3026646319633  0.3948950192157 1.0
Se     1  0.2159923472907 -0.3026646319633 -0.3948950192157 1.0
Ag     2 -0.2204038269939 -0.2494779871706 -0.0018259961677 1.0
Ag     2  0.2204038269939  0.2494779871706  0.0018259961677 1.0
Ag     2 -0.2790417893960 -0.2933412332502 -0.2658299163016 1.0
Ag     2  0.2790417893960  0.2933412332502  0.2658299163016 1.0
Ag     2  0.2070275811183  0.1528414657042 -0.2497646837884 1.0
Ag     2 -0.2070275811183 -0.1528414657042  0.2497646837884 1.0
Ag     2 -0.3429452038615  0.2049345177590 -0.4090406185479 1.0
Ag     2  0.3429452038615 -0.2049345177590  0.4090406185479 1.0
END
