TITL 4Ag2SE-200803-155114-a57af4 0.0385 214.003279 -4.61186376E+004 0 0 12 (Pmn21) n - 1
REM
REM Run started: Mon, 03 Aug 2020 16:28:18 +0100 in /lustre/scratch/uccabz1/launch_tmp/launcher_2020-08-03-14-51-12-653374
REM CASTEP 20.1 from code version af48c487+ pr-geom-scf-spinfix Tue Jun 2 15:39:59 2020 +0100
REM Functional PBE for solids (2008) Relativity Koelling-Harmon Dispersion off
REM Cut-off 300.0000 eV Grid scale 1.7500 Gmax 15.5288 1/A FBSC none
REM MP grid 4 3 2 Offset 0.000 0.000 0.000 No. kpts 6 Spacing 0.07
REM Total runtime: 2283.68 s
REM Overall efficiency: 69.7778 %
REM
REM 4Ag2SE.cell (6404a18c6b5dc90313b5c56acf317f23)
REM
REM compiler GCC version 4.9.2
REM options -cpp -iprefix /lustre/shared/ucl/apps/gcc/4.9.2/bin/../lib/gcc/x86_64-unknown-linux-gnu/4.9.2/ -mtune=corei7 -march=x86-64 -g -Og
REM COMMAND_LINE
REM seed -1198607126 -1395160444 -23623732 1695118074 307061047 614129593 -1578094036 -1383142438 426883019 1031791901 -2930334 683912
REM
REM Se 3|2.1|7|7|9|40:41:32(qc=5)
REM Ag 3|2.2|7|7|9|40U:50:41:42(qc=5)
REM 
CELL 1.54180    4.05306    6.31599    8.35981   90.00000   90.00000   90.11826
LATT -1
SFAC Se Ag 
Se     1  0.2502582170105  0.0534519078520 -0.0839736458916 1.0
Se     1 -0.2502582170105 -0.0534519078520  0.4160263541084 1.0
Se     1 -0.2507593703930  0.4252486838092 -0.2868677373221 1.0
Se     1  0.2507593703930 -0.4252486838092  0.2131322626779 1.0
Ag     2 -0.2487031646147  0.3511192012977  0.0431119097205 1.0
Ag     2  0.2487031646147 -0.3511192012977 -0.4568880902795 1.0
Ag     2  0.2491726821075 -0.3860999385107 -0.1119088865661 1.0
Ag     2 -0.2491726821075  0.3860999385107  0.3880911134339 1.0
Ag     2 -0.2507090712649 -0.1307340620226 -0.2627928504014 1.0
Ag     2  0.2507090712649  0.1307340620226  0.2372071495986 1.0
Ag     2 -0.2483883540698 -0.1453155501232  0.0855304104607 1.0
Ag     2  0.2483883540698  0.1453155501232 -0.4144695895393 1.0
END
