TITL 4Ag2Se_TETRA-200803-162740-a1eea8 -0.0128 228.021666 -4.61173413E+004 0 0 12 (Cc) n - 1
REM
REM Run started: Mon, 03 Aug 2020 17:06:22 +0100 in /lustre/scratch/uccabz1/launch_tmp/launcher_2020-08-03-15-27-38-496599
REM CASTEP 20.1 from code version af48c487+ pr-geom-scf-spinfix Tue Jun 2 15:39:59 2020 +0100
REM Functional PBE for solids (2008) Relativity Koelling-Harmon Dispersion off
REM Cut-off 300.0000 eV Grid scale 1.7500 Gmax 15.5288 1/A FBSC none
REM MP grid 3 3 3 Offset 0.000 0.000 0.000 No. kpts 10 Spacing 0.07
REM Total runtime: 2534.17 s
REM Overall efficiency: 89.6667 %
REM
REM 4Ag2Se_TETRA.cell (4020362940262d3df87d4014b41eb05e)
REM
REM compiler GCC version 4.9.2
REM options -cpp -iprefix /lustre/shared/ucl/apps/gcc/4.9.2/bin/../lib/gcc/x86_64-unknown-linux-gnu/4.9.2/ -mtune=corei7 -march=x86-64 -g -Og
REM COMMAND_LINE
REM seed 748652378 -1833316685 -1470082798 1437432574 209046744 -922816849 157677805 654883013 -1121474036 1118049442 1634686942 -52139541
REM
REM Se 3|2.1|7|7|9|40:41:32(qc=5)
REM Ag 3|2.2|7|7|9|40U:50:41:42(qc=5)
REM 
CELL 1.54180    6.35938    5.99516    5.99516   93.93530   90.33295   90.33295
LATT -1
SFAC Se Ag 
Se     1  0.2929757861878  0.1818949712658 -0.1711338438145 1.0
Se     1 -0.2070242138122 -0.1711338438145  0.1818949712658 1.0
Se     1 -0.2030031332530  0.4277847007087 -0.3499136196410 1.0
Se     1  0.2969968667470 -0.3499136196410  0.4277847007087 1.0
Ag     2  0.0763709522727 -0.4073462846246 -0.0509619583012 1.0
Ag     2 -0.4236290477273 -0.0509619583012 -0.4073462846246 1.0
Ag     2  0.0710814270734  0.2930540726039  0.3535624839235 1.0
Ag     2 -0.4289185729266  0.3535624839235  0.2930540726039 1.0
Ag     2  0.3380233861679 -0.0376229490072  0.1672558300430 1.0
Ag     2 -0.1619766138321  0.1672558300430 -0.0376229490072 1.0
Ag     2 -0.4944409184489 -0.4030580122963 -0.0941423908601 1.0
Ag     2  0.0055590815511 -0.0941423908601 -0.4030580122963 1.0
END
