TITL 4Ag2Se_TETRA-200803-164302-5b4758 -0.0160 235.035939 -4.61180187E+004 0 0 12 (P-1) n - 1
REM
REM Run started: Mon, 03 Aug 2020 17:28:40 +0100 in /lustre/scratch/uccabz1/launch_tmp/launcher_2020-08-03-15-43-00-664997
REM CASTEP 20.1 from code version af48c487+ pr-geom-scf-spinfix Tue Jun 2 15:39:59 2020 +0100
REM Functional PBE for solids (2008) Relativity Koelling-Harmon Dispersion off
REM Cut-off 300.0000 eV Grid scale 1.7500 Gmax 15.5288 1/A FBSC none
REM MP grid 2 2 4 Offset 0.000 0.000 0.000 No. kpts 8 Spacing 0.07
REM Total runtime: 3051.13 s
REM Overall efficiency: 91.5833 %
REM
REM 4Ag2Se_TETRA.cell (4020362940262d3df87d4014b41eb05e)
REM
REM compiler GCC version 4.9.2
REM options -cpp -iprefix /lustre/shared/ucl/apps/gcc/4.9.2/bin/../lib/gcc/x86_64-unknown-linux-gnu/4.9.2/ -mtune=corei7 -march=x86-64 -g -Og
REM COMMAND_LINE
REM seed -309836758 -528737746 950032911 -905707533 -600848863 -796829347 -1019606983 70598860 -1759182018 1754517038 250893445 -2076108775
REM
REM Se 3|2.1|7|7|9|40:41:32(qc=5)
REM Ag 3|2.2|7|7|9|40U:50:41:42(qc=5)
REM 
CELL 1.54180    7.67132    7.64542    4.14845  100.44821   99.33667   93.60007
LATT -1
SFAC Se Ag 
Se     1  0.3310658321043 -0.1704268790803 -0.4253026300040 1.0
Se     1 -0.3310658321043  0.1704268790803  0.4253026300040 1.0
Se     1 -0.1535027750458 -0.2761569277981  0.1975785274039 1.0
Se     1  0.1535027750458  0.2761569277981 -0.1975785274039 1.0
Ag     2 -0.4998320409911 -0.3117664155382  0.0748246871764 1.0
Ag     2  0.4998320409911  0.3117664155382 -0.0748246871764 1.0
Ag     2 -0.2924996258881 -0.0971629239306 -0.2644486594508 1.0
Ag     2  0.2924996258881  0.0971629239306  0.2644486594508 1.0
Ag     2  0.1242110174240 -0.3119769110790 -0.0682921604900 1.0
Ag     2 -0.1242110174240  0.3119769110790  0.0682921604900 1.0
Ag     2  0.2883479969163  0.4795697100790  0.4145813173140 1.0
Ag     2 -0.2883479969163 -0.4795697100790 -0.4145813173140 1.0
END
