TITL 4Ag2Se_TETRA_OPT-200811-115133-f7c391 -0.0452 221.805703 -4.61186203E+004 0 0 12 (P21) n - 1
REM
REM Run started: Tue, 11 Aug 2020 13:32:42 +0100 in /lustre/scratch/uccabz1/launch_tmp/launcher_2020-08-11-10-51-32-286391
REM CASTEP 20.1 from code version af48c487+ pr-geom-scf-spinfix Tue Jun 2 15:39:59 2020 +0100
REM Functional PBE for solids (2008) Relativity Koelling-Harmon Dispersion off
REM Cut-off 300.0000 eV Grid scale 1.7500 Gmax 15.5288 1/A FBSC none
REM MP grid 4 3 2 Offset 0.000 0.000 0.000 No. kpts 8 Spacing 0.07
REM Total runtime: 6089.67 s
REM Overall efficiency: 88.1538 %
REM
REM 4Ag2Se_TETRA_OPT.cell (db6eaae92e6a5f18c152ebab86a92a61)
REM
REM compiler GCC version 4.9.2
REM options -cpp -iprefix /lustre/shared/ucl/apps/gcc/4.9.2/bin/../lib/gcc/x86_64-unknown-linux-gnu/4.9.2/ -mtune=corei7 -march=x86-64 -g -Og
REM COMMAND_LINE
REM seed 496560297 -1764563034 -1962705654 -931742597 -1592081214 -1054771806 -450223934 1294453371 -1562483920 286511538 2122549754 -1755398065
REM
REM Se 3|2.1|7|7|9|40:41:32(qc=5)
REM Ag 3|2.2|7|7|9|40U:50:41:42(qc=5)
REM 
CELL 1.54180    4.37185    6.78555    7.48030   90.00000   91.72084   90.00000
LATT -1
SFAC Se Ag 
Se     1  0.1477379070978  0.2782620350502 -0.3802192256462 1.0
Se     1 -0.1477379070978 -0.2217379649498  0.3802192256462 1.0
Se     1 -0.4201626887756 -0.1984839202143 -0.0829871083094 1.0
Se     1  0.4201626887756  0.3015160797857  0.0829871083094 1.0
Ag     2 -0.0518056656261  0.1083021786206 -0.0615152707757 1.0
Ag     2  0.0518056656261 -0.3916978213794  0.0615152707757 1.0
Ag     2  0.1296098521970 -0.2494540727842 -0.3108752584320 1.0
Ag     2 -0.1296098521970  0.2505459272158  0.3108752584320 1.0
Ag     2 -0.3940253105699  0.0299750361421  0.6074562819783 1.0
Ag     2  0.3940253105699 -0.4700249638579 -0.6074562819783 1.0
Ag     2 -0.3272581608244  0.4562938431857 -0.2401814583748 1.0
Ag     2  0.3272581608244 -0.0437061568143  0.2401814583748 1.0
END
