TITL 4Ag2SE-200803-160242-011f2f -0.0362 249.653649 -4.61179662E+004 0 0 12 (P-4) n - 1
REM
REM Run started: Mon, 03 Aug 2020 16:22:28 +0100 in /lustre/scratch/uccabz1/launch_tmp/launcher_2020-08-03-15-02-41-289789
REM CASTEP 20.1 from code version af48c487+ pr-geom-scf-spinfix Tue Jun 2 15:39:59 2020 +0100
REM Functional PBE for solids (2008) Relativity Koelling-Harmon Dispersion off
REM Cut-off 300.0000 eV Grid scale 1.7500 Gmax 15.5288 1/A FBSC none
REM MP grid 4 2 2 Offset 0.000 0.000 0.000 No. kpts 2 Spacing 0.07
REM Total runtime: 1230.56 s
REM Overall efficiency: 64.5 %
REM
REM 4Ag2SE.cell (6404a18c6b5dc90313b5c56acf317f23)
REM
REM compiler GCC version 4.9.2
REM options -cpp -iprefix /lustre/shared/ucl/apps/gcc/4.9.2/bin/../lib/gcc/x86_64-unknown-linux-gnu/4.9.2/ -mtune=corei7 -march=x86-64 -g -Og
REM COMMAND_LINE
REM seed -1109033280 -968123083 638332376 1822926561 -141813992 38231042 551541172 1660462963 -478903460 2130879093 -1314524966 -2079444436
REM
REM Se 3|2.1|7|7|9|40:41:32(qc=5)
REM Ag 3|2.2|7|7|9|40U:50:41:42(qc=5)
REM 
CELL 1.54180    4.40869    7.52513    7.52513   90.00000   90.00000   90.00000
LATT -1
SFAC Se Ag 
Se     1 -0.3429614713857  0.1853524229718  0.3109229370183 1.0
Se     1 -0.3429614713857 -0.1853524229718 -0.3109229370183 1.0
Se     1  0.3429614713857 -0.3109229370183  0.1853524229718 1.0
Se     1  0.3429614713857  0.3109229370183 -0.1853524229718 1.0
Ag     2 -0.1545436046007 -0.2985145623856  0.3885013602649 1.0
Ag     2 -0.1545436046007  0.2985145623856 -0.3885013602649 1.0
Ag     2  0.1545436046007 -0.3885013602649 -0.2985145623856 1.0
Ag     2  0.1545436046007  0.3885013602649  0.2985145623856 1.0
Ag     2 -0.1433167702255 -0.2435746111453  0.0034836305594 1.0
Ag     2 -0.1433167702255  0.2435746111453 -0.0034836305594 1.0
Ag     2  0.1433167702255 -0.0034836305594 -0.2435746111453 1.0
Ag     2  0.1433167702255  0.0034836305594  0.2435746111453 1.0
END
