TITL 4Ag2Se_TETRA_OPT-200811-105515-016af6 -0.0373 231.822263 -4.61183354E+004 0 0 12 (P1) n - 1
REM
REM Run started: Tue, 11 Aug 2020 12:26:40 +0100 in /lustre/scratch/uccabz1/launch_tmp/launcher_2020-08-11-09-55-14-152493
REM CASTEP 20.1 from code version af48c487+ pr-geom-scf-spinfix Tue Jun 2 15:39:59 2020 +0100
REM Functional PBE for solids (2008) Relativity Koelling-Harmon Dispersion off
REM Cut-off 300.0000 eV Grid scale 1.7500 Gmax 15.5288 1/A FBSC none
REM MP grid 3 3 3 Offset 0.000 0.000 0.000 No. kpts 14 Spacing 0.07
REM Total runtime: 5540.85 s
REM Overall efficiency: 93.2222 %
REM
REM 4Ag2Se_TETRA_OPT.cell (db6eaae92e6a5f18c152ebab86a92a61)
REM
REM compiler GCC version 4.9.2
REM options -cpp -iprefix /lustre/shared/ucl/apps/gcc/4.9.2/bin/../lib/gcc/x86_64-unknown-linux-gnu/4.9.2/ -mtune=corei7 -march=x86-64 -g -Og
REM COMMAND_LINE
REM seed -610506792 -1749513307 589151483 1026646708 -1132022397 -1990920710 -1980412189 -926717626 -1620556337 1265914174 -1309387792 -1379041276
REM
REM Se 3|2.1|7|7|9|40:41:32(qc=5)
REM Ag 3|2.2|7|7|9|40U:50:41:42(qc=5)
REM 
CELL 1.54180    5.07199    6.70745    6.81937   87.95822   89.16027   89.80324
LATT -1
SFAC Se Ag 
Se     1 -0.2302957518745 -0.3593672764715  0.4547178825800 1.0
Se     1  0.1784767561777 -0.3892258339575 -0.0126602162633 1.0
Se     1 -0.4269938727967  0.1049381088528 -0.0186118288344 1.0
Se     1  0.1692172307989  0.1437984297830  0.5238060717110 1.0
Ag     2 -0.5095767349784 -0.1276015002278 -0.3178522100984 1.0
Ag     2  0.2236632434194 -0.4763336261032 -0.3820649096785 1.0
Ag     2  0.2392895920290 -0.1625686005143  0.2921200945682 1.0
Ag     2 -0.2794574803020  0.3816216052822 -0.2590280139311 1.0
Ag     2 -0.3077162694674 -0.2919827777371  0.0383525466702 1.0
Ag     2  0.4411143476343  0.3966925872614  0.2710935659305 1.0
Ag     2 -0.2562458800299  0.0497146221546  0.3449741846693 1.0
Ag     2  0.0679039193895  0.2096818616774  0.0317542326766 1.0
END
