TITL 4Ag2SE-200803-154820-9c568d 0.0109 243.243468 -4.61179246E+004 0 0 12 (Cmce) n - 1
REM
REM Run started: Mon, 03 Aug 2020 15:59:43 +0100 in /lustre/scratch/uccabz1/launch_tmp/launcher_2020-08-03-14-48-18-687504
REM CASTEP 20.1 from code version af48c487+ pr-geom-scf-spinfix Tue Jun 2 15:39:59 2020 +0100
REM Functional PBE for solids (2008) Relativity Koelling-Harmon Dispersion off
REM Cut-off 300.0000 eV Grid scale 1.7500 Gmax 15.5288 1/A FBSC none
REM MP grid 3 3 2 Offset 0.000 0.000 0.000 No. kpts 4 Spacing 0.07
REM Total runtime: 904.66 s
REM Overall efficiency: 71 %
REM
REM 4Ag2SE.cell (6404a18c6b5dc90313b5c56acf317f23)
REM
REM compiler GCC version 4.9.2
REM options -cpp -iprefix /lustre/shared/ucl/apps/gcc/4.9.2/bin/../lib/gcc/x86_64-unknown-linux-gnu/4.9.2/ -mtune=corei7 -march=x86-64 -g -Og
REM COMMAND_LINE
REM seed 1432589505 -1022768181 -2023113852 -246491998 1872441145 -2016963815 -1107026846 -1036736097 -1476647187 1427114067 -850302061 1175371356
REM
REM Se 3|2.1|7|7|9|40:41:32(qc=5)
REM Ag 3|2.2|7|7|9|40U:50:41:42(qc=5)
REM 
CELL 1.54180    5.04180    5.04180    9.57920   90.00000   90.00000   92.63444
LATT -1
SFAC Se Ag 
Se     1  0.3708991091622 -0.0053136908378  0.3429225924100 1.0
Se     1  0.0053136908378 -0.3708991091622 -0.3429225924100 1.0
Se     1 -0.4946863091622  0.1291008908378 -0.1570774075900 1.0
Se     1 -0.1291008908378  0.4946863091622  0.1570774075900 1.0
Ag     2  0.0204236138802  0.2556735266951 -0.1096372719659 1.0
Ag     2 -0.2556735266951 -0.0204236138802  0.1096372719659 1.0
Ag     2  0.2443264733049  0.4795763861198  0.3903627280341 1.0
Ag     2 -0.4795763861198 -0.2443264733049 -0.3903627280341 1.0
Ag     2  0.1318863266951  0.1442108138802 -0.3903627280341 1.0
Ag     2 -0.1442108138802 -0.1318863266951  0.3903627280341 1.0
Ag     2  0.3557891861198  0.3681136733049  0.1096372719659 1.0
Ag     2 -0.3681136733049 -0.3557891861198 -0.1096372719659 1.0
END
