TITL Ag2Se-P21c-200928-093621-9623cc 0.0135 233.189332 -4.61190012E+004 0 0 12 (P21/c) n - 1
REM
REM Run started: Mon, 28 Sep 2020 11:02:10 +0100 in /scratch/scratch/uccabz1/launch_tmp/launcher_2020-09-28-08-36-19-421788
REM CASTEP 19.11| from code version Version unavailable
REM Functional PBE for solids (2008) Relativity Koelling-Harmon Dispersion off
REM Cut-off 340.0000 eV Grid scale 1.7500 Gmax 16.5316 1/A FBSC none
REM MP grid 3 3 3 Offset 0.000 0.000 0.000 No. kpts 10 Spacing 0.07
REM Total runtime: 5480.49 s
REM Overall efficiency: 90.2857 %
REM
REM
REM
REM compiler GCC version 4.9.2
REM options -cpp -iprefix /scratch/UCL/applications/gcc/4.9.2/bin/../lib/gcc/x86_64-unknown-linux-gnu/4.9.2/ -mtune=corei7 -march=x86-64 -g -O2
REM COMMAND_LINE
REM seed -432641950 -1683016566 -1217885326 -2082094152 -1130990065 -1830282857 2140841445 2093749764 -252228433 -1136475615 1113569852 1831293958
REM
REM Se 3|2.1|7|7|9|40:41:32(qc=5)
REM Ag 3|2.2|7|7|9|40U:50:41:42(qc=5)
REM 
CELL 1.54180    4.92316    6.82869    6.94277   90.00000   92.47483   90.00000
LATT -1
SFAC Se Ag 
Se     1  0.2302806297137 -0.5411042747023  0.3004836192928 1.0
Se     1 -0.2302806297137 -0.0411042747023  0.1995163807072 1.0
Se     1 -0.2302806297137  0.5411042747023 -0.3004836192928 1.0
Se     1  0.2302806297137  0.0411042747023 -0.1995163807072 1.0
Ag     2  0.2632198757387 -0.2992060323765 -0.3981064987062 1.0
Ag     2 -0.2632198757387  0.2007939676235 -0.1018935012938 1.0
Ag     2 -0.2632198757387  0.2992060323765  0.3981064987062 1.0
Ag     2  0.2632198757387 -0.2007939676235  0.1018935012938 1.0
Ag     2  0.2488781906718  0.0727902930453  0.4141522177849 1.0
Ag     2 -0.2488781906718 -0.4272097069547  0.0858477822151 1.0
Ag     2 -0.2488781906718 -0.0727902930453 -0.4141522177849 1.0
Ag     2  0.2488781906718  0.4272097069547 -0.0858477822151 1.0
END
