TITL 6Ag2Se-200724-104909-dee448 -0.0702 393.980492 -6.91993713E+004 0 0 18 (R32) n - 1
REM
REM Run started: Fri, 24 Jul 2020 11:41:22 +0100 in /rds/user/bz240/hpc-work/airss-fw/launch_tmp/launcher_2020-07-24-09-49-07-659465
REM CASTEP 19.11| from code version Version unavailable
REM Functional Perdew Burke Ernzerhof Relativity Koelling-Harmon Dispersion off
REM Cut-off 300.0000 eV Grid scale 1.7500 Gmax 15.5288 1/A FBSC none
REM MP grid 3 3 2 Offset 0.000 0.000 0.000 No. kpts 5 Spacing 0.07
REM Total runtime: 3317.2 s
REM Overall efficiency: 79.2 %
REM
REM 6Ag2Se.cell (be4689b4cac7b37e3e738b5494392318)
REM
REM compiler GCC version 4.8.5 20150623 (Red Hat 4.8.5-39)
REM options -cpp -mtune=generic -march=x86-64 -g -Og
REM COMMAND_LINE
REM seed 613642806 -2108288148 557810401 1926996523 -1541624007 563693531 -1887457891 -762942122 -1525129391 474205219 -1487273094 1721430423
REM
REM Se 3|2.1|7|7|9|40:41:32(qc=5)
REM Ag 3|2.2|7|7|9|40U:50:41:42(qc=5)
REM 
CELL 1.54180    7.23298    7.23298    8.69581   90.00000   90.00000  120.00000
LATT -1
SFAC Se Ag 
Se     1  0.3333333333333  0.3333333333333 -0.3363115402540 1.0
Se     1 -0.3333333333333 -0.0000000000000 -0.0029782069206 1.0
Se     1 -0.0000000000000 -0.3333333333333  0.3303551264127 1.0
Se     1 -0.3333333333333 -0.0000000000000  0.4133164314850 1.0
Se     1 -0.0000000000000 -0.3333333333333 -0.2533502351817 1.0
Se     1  0.3333333333333  0.3333333333333  0.0799830981517 1.0
Ag     2 -0.3702094635899  0.3337958995968 -0.1244254512620 1.0
Ag     2 -0.3337958995968  0.2959946368133  0.2089078820713 1.0
Ag     2 -0.2959946368133  0.3702094635899 -0.4577587845954 1.0
Ag     2 -0.0368761302566  0.0004625662635  0.2089078820713 1.0
Ag     2 -0.0004625662635 -0.0373386965200 -0.4577587845954 1.0
Ag     2  0.0373386965200  0.0368761302566 -0.1244254512620 1.0
Ag     2  0.3328707670699 -0.3706720298534 -0.1244254512620 1.0
Ag     2  0.3706720298534 -0.2964572030767  0.2089078820713 1.0
Ag     2  0.2964572030767 -0.3328707670699 -0.4577587845954 1.0
Ag     2 -0.3333333333333 -0.0000000000000 -0.2940747374449 1.0
Ag     2 -0.0000000000000 -0.3333333333333  0.0392585958884 1.0
Ag     2  0.3333333333333  0.3333333333333  0.3725919292218 1.0
END
