TITL 2Ag2Se-200724-015624-27bab6 0.0426 133.671320 -2.30663233E+004 0 0 6 (I41/amd) n - 1
REM
REM Run started: Fri, 24 Jul 2020 02:16:25 +0100 in /rds/user/bz240/hpc-work/airss-fw/launch_tmp/launcher_2020-07-24-00-56-22-490444
REM CASTEP 19.11| from code version Version unavailable
REM Functional Perdew Burke Ernzerhof Relativity Koelling-Harmon Dispersion off
REM Cut-off 300.0000 eV Grid scale 1.7500 Gmax 15.5288 1/A FBSC none
REM MP grid 4 3 3 Offset 0.000 0.000 0.000 No. kpts 18 Spacing 0.07
REM Total runtime: 1391.36 s
REM Overall efficiency: 93 %
REM
REM 2Ag2Se.cell (28ba953ba57c5a31f5193472e679a60a)
REM
REM compiler GCC version 4.8.5 20150623 (Red Hat 4.8.5-39)
REM options -cpp -mtune=generic -march=x86-64 -g -Og
REM COMMAND_LINE
REM seed 2068727753 -208948471 1478626768 -2075357970 700176469 2023012122 1202555067 -485994084 -328679847 430216865 1482818020 -1664355064
REM
REM Se 3|2.1|7|7|9|40:41:32(qc=5)
REM Ag 3|2.2|7|7|9|40U:50:41:42(qc=5)
REM 
CELL 1.54180    4.38261    5.94157    5.94157   82.18240   68.35783   68.35783
LATT -1
SFAC Se Ag 
Se     1  0.0213239660282 -0.0000000000000 -0.0000000000000 1.0
Se     1  0.2713239660282 -0.5000000000000 -0.5000000000000 1.0
Ag     2  0.1455368990574  0.2504148944586  0.2501287913983 1.0
Ag     2 -0.3539194150856  0.7495851055414 -0.2501287913983 1.0
Ag     2 -0.3543343095442  0.2498712086017 -0.2495851055414 1.0
Ag     2 -0.3540482064839  0.7501287913983  0.2495851055414 1.0
END
