TITL 2Ag2Se-200724-021955-a0881b -0.0371 126.723930 -2.30654866E+004 0 0 6 (R3m) n - 1
REM
REM Run started: Fri, 24 Jul 2020 02:38:04 +0100 in /scratch/scratch/uccabz1/launch_tmp/launcher_2020-07-24-01-19-53-279992
REM CASTEP 19.11| from code version Version unavailable
REM Functional Perdew Burke Ernzerhof Relativity Koelling-Harmon Dispersion off
REM Cut-off 300.0000 eV Grid scale 1.7500 Gmax 15.5288 1/A FBSC none
REM MP grid 4 4 4 Offset 0.000 0.000 0.000 No. kpts 32 Spacing 0.07
REM Total runtime: 1227.59 s
REM Overall efficiency: 92 %
REM
REM 2Ag2Se.cell (28ba953ba57c5a31f5193472e679a60a)
REM
REM compiler GCC version 4.9.2
REM options -cpp -iprefix /scratch/UCL/applications/gcc/4.9.2/bin/../lib/gcc/x86_64-unknown-linux-gnu/4.9.2/ -mtune=corei7 -march=x86-64 -g -O2
REM COMMAND_LINE
REM seed -1798595890 -1537785829 1681650450 -1425648360 -1867663505 -1693489655 1702701068 692310880 1227515037 -123479685 646935455 -1217444254
REM
REM Se 3|2.1|7|7|9|40:41:32(qc=5)
REM Ag 3|2.2|7|7|9|40U:50:41:42(qc=5)
REM 
CELL 1.54180    5.70600    5.70600    5.57241   59.20377   59.20377   60.00000
LATT -1
SFAC Se Ag 
Se     1  0.1045024561857  0.1045024561857 -0.3135072685570 1.0
Se     1 -0.4259441813234 -0.4259441813234  0.2778326439702 1.0
Ag     2 -0.4337264654270 -0.4183869097997 -0.2226404730310 1.0
Ag     2  0.0747539482576 -0.4337264654270 -0.2226404730310 1.0
Ag     2 -0.4183869097997  0.0747539482576 -0.2226404730310 1.0
Ag     2 -0.0852540145599 -0.0852540145599  0.2557621436798 1.0
END
