TITL 2Ag2Se-200724-023101-245dd0 -0.0078 127.520614 -2.30659791E+004 0 0 6 (C2/m) n - 1
REM
REM Run started: Fri, 24 Jul 2020 02:36:47 +0100 in /scratch/scratch/uccabz1/launch_tmp/launcher_2020-07-24-01-30-59-913351
REM CASTEP 19.11| from code version Version unavailable
REM Functional Perdew Burke Ernzerhof Relativity Koelling-Harmon Dispersion off
REM Cut-off 300.0000 eV Grid scale 1.7500 Gmax 15.5288 1/A FBSC none
REM MP grid 3 3 3 Offset 0.000 0.000 0.000 No. kpts 10 Spacing 0.07
REM Total runtime: 409.42 s
REM Overall efficiency: 83 %
REM
REM 2Ag2Se.cell (28ba953ba57c5a31f5193472e679a60a)
REM
REM compiler GCC version 4.9.2
REM options -cpp -iprefix /scratch/UCL/applications/gcc/4.9.2/bin/../lib/gcc/x86_64-unknown-linux-gnu/4.9.2/ -mtune=corei7 -march=x86-64 -g -O2
REM COMMAND_LINE
REM seed 1874226288 -616550603 545872357 1570316608 -1492206853 1389283194 77820467 -1734363725 -1750687670 891094865 -2126259716 -1635823942
REM
REM Se 3|2.1|7|7|9|40:41:32(qc=5)
REM Ag 3|2.2|7|7|9|40U:50:41:42(qc=5)
REM 
CELL 1.54180    4.91503    5.12985    5.12985   98.33369   93.15632   93.15632
LATT -1
SFAC Se Ag 
Se     1 -0.2164867739559  0.2338599468884  0.2313516468885 1.0
Se     1  0.2164867739559 -0.2313516468885 -0.2338599468884 1.0
Ag     2 -0.2668198956007 -0.3097623338497  0.0663032009721 1.0
Ag     2  0.2668198956007 -0.0663032009721  0.3097623338497 1.0
Ag     2 -0.2668198956007  0.0688115009721 -0.3122706338497 1.0
Ag     2  0.2668198956007  0.3122706338497 -0.0688115009721 1.0
END
