TITL 2Ag2Se-200724-024341-ca0da8 -0.0040 114.235260 -2.30663152E+004 0 0 6 (P21/m) n - 1
REM
REM Run started: Fri, 24 Jul 2020 03:40:01 +0100 in /rds/user/bz240/hpc-work/airss-fw/launch_tmp/launcher_2020-07-24-01-43-39-067418
REM CASTEP 19.11| from code version Version unavailable
REM Functional Perdew Burke Ernzerhof Relativity Koelling-Harmon Dispersion off
REM Cut-off 300.0000 eV Grid scale 1.7500 Gmax 15.5288 1/A FBSC none
REM MP grid 4 4 3 Offset 0.000 0.000 0.000 No. kpts 24 Spacing 0.07
REM Total runtime: 3483.22 s
REM Overall efficiency: 93.3636 %
REM
REM 2Ag2Se.cell (28ba953ba57c5a31f5193472e679a60a)
REM
REM compiler GCC version 4.8.5 20150623 (Red Hat 4.8.5-39)
REM options -cpp -mtune=generic -march=x86-64 -g -Og
REM COMMAND_LINE
REM seed -2054865165 1003966666 -1660384355 968895225 54476644 312144058 451735724 1728264103 -1467314273 1631563956 -1987319270 -49001439
REM
REM Se 3|2.1|7|7|9|40:41:32(qc=5)
REM Ag 3|2.2|7|7|9|40U:50:41:42(qc=5)
REM 
CELL 1.54180    4.09065    4.17063    7.30573   89.91383  113.57458   90.38063
LATT -1
SFAC Se Ag 
Se     1 -0.4572670955905  0.2505502186867  0.2119806392084 1.0
Se     1  0.4572670955905 -0.2505502186867 -0.2119806392084 1.0
Ag     2  0.2565704056566  0.2489825721236 -0.4937915347776 1.0
Ag     2 -0.2565704056566 -0.2489825721236  0.4937915347776 1.0
Ag     2  0.0262096099633 -0.2515659074553  0.1607566379925 1.0
Ag     2 -0.0262096099633  0.2515659074553 -0.1607566379925 1.0
END
