TITL 2Ag2Se-200724-025918-3f0776 -0.0211 126.719174 -2.30655685E+004 0 0 6 (P3) n - 1
REM
REM Run started: Fri, 24 Jul 2020 03:08:01 +0100 in /rds/user/bz240/hpc-work/airss-fw/launch_tmp/launcher_2020-07-24-01-59-16-378181
REM CASTEP 19.11| from code version Version unavailable
REM Functional Perdew Burke Ernzerhof Relativity Koelling-Harmon Dispersion off
REM Cut-off 300.0000 eV Grid scale 1.7500 Gmax 15.5288 1/A FBSC none
REM MP grid 4 3 3 Offset 0.000 0.000 0.000 No. kpts 10 Spacing 0.07
REM Total runtime: 568.62 s
REM Overall efficiency: 75.2 %
REM
REM 2Ag2Se.cell (28ba953ba57c5a31f5193472e679a60a)
REM
REM compiler GCC version 4.8.5 20150623 (Red Hat 4.8.5-39)
REM options -cpp -mtune=generic -march=x86-64 -g -Og
REM COMMAND_LINE
REM seed 368983792 -2080392089 1750798038 -75077661 536768137 -476716106 260304348 1320308872 -657502647 1908751685 1562048804 -1114577288
REM
REM Se 3|2.1|7|7|9|40:41:32(qc=5)
REM Ag 3|2.2|7|7|9|40U:50:41:42(qc=5)
REM 
CELL 1.54180    4.71010    5.57367    5.57367  120.00000   90.00000   90.00000
LATT -1
SFAC Se Ag 
Se     1 -0.1852256616444 -0.3333333000000  0.3333333000000 1.0
Se     1  0.2291447172859  0.3333333666667 -0.3333333666667 1.0
Ag     2 -0.2876695887462  0.1926539163284  0.3321586268404 1.0
Ag     2 -0.2876695887462 -0.3321586268404 -0.1395048105121 1.0
Ag     2 -0.2876695887462  0.1395048105121 -0.1926539163284 1.0
Ag     2  0.2125751105970  0.0000000333333 -0.0000000333333 1.0
END
