TITL 2Ag2Se-200724-023126-eacad6 0.0168 126.425317 -2.30656969E+004 0 0 6 (Pmma) n - 1
REM
REM Run started: Fri, 24 Jul 2020 02:42:21 +0100 in /rds/user/bz240/hpc-work/airss-fw/launch_tmp/launcher_2020-07-24-01-31-24-199986
REM CASTEP 19.11| from code version Version unavailable
REM Functional Perdew Burke Ernzerhof Relativity Koelling-Harmon Dispersion off
REM Cut-off 300.0000 eV Grid scale 1.7500 Gmax 15.5288 1/A FBSC none
REM MP grid 4 4 2 Offset 0.000 0.000 0.000 No. kpts 8 Spacing 0.07
REM Total runtime: 685.84 s
REM Overall efficiency: 84.8333 %
REM
REM 2Ag2Se.cell (28ba953ba57c5a31f5193472e679a60a)
REM
REM compiler GCC version 4.8.5 20150623 (Red Hat 4.8.5-39)
REM options -cpp -mtune=generic -march=x86-64 -g -Og
REM COMMAND_LINE
REM seed -1650614762 555878237 1438899554 1443278802 -877077005 104135366 1929432271 -1913006871 -750096613 1902122931 -251169441 392778157
REM
REM Se 3|2.1|7|7|9|40:41:32(qc=5)
REM Ag 3|2.2|7|7|9|40U:50:41:42(qc=5)
REM 
CELL 1.54180    3.82801    4.52403    7.30034   90.34793   90.00000   90.00000
LATT -1
SFAC Se Ag 
Se     1 -0.1247016431992 -0.2534442427066  0.2058896973073 1.0
Se     1 -0.1247016431992  0.2534442427066 -0.2058896973073 1.0
Ag     2  0.3752983568008 -0.2509100073187 -0.1120259101506 1.0
Ag     2  0.3752983568008  0.2509100073187  0.1120259101506 1.0
Ag     2 -0.1247016431992  0.2481383641868  0.4003512077077 1.0
Ag     2 -0.1247016431992 -0.2481383641868 -0.4003512077077 1.0
END
