TITL 2Ag2Se-200724-021019-f38c70 -0.0015 115.578131 -2.30663357E+004 0 0 6 (P-1) n - 1
REM
REM Run started: Fri, 24 Jul 2020 02:37:01 +0100 in /scratch/scratch/uccabz1/launch_tmp/launcher_2020-07-24-01-10-17-724828
REM CASTEP 19.11| from code version Version unavailable
REM Functional Perdew Burke Ernzerhof Relativity Koelling-Harmon Dispersion off
REM Cut-off 300.0000 eV Grid scale 1.7500 Gmax 15.5288 1/A FBSC none
REM MP grid 4 4 3 Offset 0.000 0.000 0.000 No. kpts 24 Spacing 0.07
REM Total runtime: 1695.13 s
REM Overall efficiency: 89.5714 %
REM
REM 2Ag2Se.cell (28ba953ba57c5a31f5193472e679a60a)
REM
REM compiler GCC version 4.9.2
REM options -cpp -iprefix /scratch/UCL/applications/gcc/4.9.2/bin/../lib/gcc/x86_64-unknown-linux-gnu/4.9.2/ -mtune=corei7 -march=x86-64 -g -O2
REM COMMAND_LINE
REM seed 1624016595 -1513463873 1118121827 -437362538 380376382 945783827 -1713913194 -1536886384 -786018475 -1141782596 987299388 -578352092
REM
REM Se 3|2.1|7|7|9|40:41:32(qc=5)
REM Ag 3|2.2|7|7|9|40U:50:41:42(qc=5)
REM 
CELL 1.54180    4.10754    4.18234    6.79303   90.23107   97.87327   91.00280
LATT -1
SFAC Se Ag 
Se     1 -0.1938420532507  0.2496400860995 -0.2126706477051 1.0
Se     1  0.1938420532507 -0.2496400860995  0.2126706477051 1.0
Ag     2  0.2515114684074  0.2493123127478  0.4944222390565 1.0
Ag     2 -0.2515114684074 -0.2493123127478 -0.4944222390565 1.0
Ag     2 -0.3328625400080  0.2559855413007  0.1719866860980 1.0
Ag     2  0.3328625400080 -0.2559855413007 -0.1719866860980 1.0
END
