TITL 2Ag2Se-200724-013748-b21722 -0.0462 127.101875 -2.30663246E+004 0 0 6 (P21/m) n - 1
REM
REM Run started: Fri, 24 Jul 2020 01:49:56 +0100 in /rds/user/bz240/hpc-work/airss-fw/launch_tmp/launcher_2020-07-24-00-37-46-946487
REM CASTEP 19.11| from code version Version unavailable
REM Functional Perdew Burke Ernzerhof Relativity Koelling-Harmon Dispersion off
REM Cut-off 300.0000 eV Grid scale 1.7500 Gmax 15.5288 1/A FBSC none
REM MP grid 4 4 3 Offset 0.000 0.000 0.000 No. kpts 16 Spacing 0.07
REM Total runtime: 918.65 s
REM Overall efficiency: 90.1667 %
REM
REM 2Ag2Se.cell (28ba953ba57c5a31f5193472e679a60a)
REM
REM compiler GCC version 4.8.5 20150623 (Red Hat 4.8.5-39)
REM options -cpp -mtune=generic -march=x86-64 -g -Og
REM COMMAND_LINE
REM seed -180636288 -331241377 1503809902 -115193195 -1010249881 -696226599 737245266 -1755672270 1673991276 165317917 -1642401340 989239942
REM
REM Se 3|2.1|7|7|9|40:41:32(qc=5)
REM Ag 3|2.2|7|7|9|40U:50:41:42(qc=5)
REM 
CELL 1.54180    4.40300    4.61206    6.32042   90.00000   90.00000   97.99142
LATT -1
SFAC Se Ag 
Se     1 -0.1929639750210  0.2836244117579 -0.2500000000000 1.0
Se     1  0.1929639750210 -0.2836244117579  0.2500000000000 1.0
Ag     2  0.2994009118524  0.2218271842324  0.4855238262879 1.0
Ag     2 -0.2994009118524 -0.2218271842324 -0.0144761737121 1.0
Ag     2 -0.2994009118524 -0.2218271842324 -0.4855238262879 1.0
Ag     2  0.2994009118524  0.2218271842324  0.0144761737121 1.0
END
