TITL 2Ag2Se-200724-025142-1a5781 -0.0443 130.112497 -2.30663597E+004 0 0 6 (R32) n - 1
REM
REM Run started: Fri, 24 Jul 2020 03:08:32 +0100 in /rds/user/bz240/hpc-work/airss-fw/launch_tmp/launcher_2020-07-24-01-51-40-597993
REM CASTEP 19.11| from code version Version unavailable
REM Functional Perdew Burke Ernzerhof Relativity Koelling-Harmon Dispersion off
REM Cut-off 300.0000 eV Grid scale 1.7500 Gmax 15.5288 1/A FBSC none
REM MP grid 3 3 3 Offset 0.000 0.000 0.000 No. kpts 6 Spacing 0.07
REM Total runtime: 1121.07 s
REM Overall efficiency: 89.25 %
REM
REM 2Ag2Se.cell (28ba953ba57c5a31f5193472e679a60a)
REM
REM compiler GCC version 4.8.5 20150623 (Red Hat 4.8.5-39)
REM options -cpp -mtune=generic -march=x86-64 -g -Og
REM COMMAND_LINE
REM seed -461647112 -404745863 -1434280044 -351484765 -458834043 -401071775 1259099620 -2113953547 612420276 -1553670166 -383228217 -611730195
REM
REM Se 3|2.1|7|7|9|40:41:32(qc=5)
REM Ag 3|2.2|7|7|9|40U:50:41:42(qc=5)
REM 
CELL 1.54180    5.06730    5.06730    5.06730   89.75897   89.75897   89.75897
LATT -1
SFAC Se Ag 
Se     1  0.2219701318004  0.2219701318004  0.2219701318004 1.0
Se     1 -0.3594045624421 -0.3594045624421 -0.3594045624421 1.0
Ag     2 -0.2730421185428  0.4318324753526  0.1360949794199 1.0
Ag     2  0.1360949794199 -0.2730421185428  0.4318324753526 1.0
Ag     2  0.4318324753526  0.1360949794199 -0.2730421185428 1.0
Ag     2 -0.0681507055880 -0.0681507055880 -0.0681507055880 1.0
END
