TITL 2Ag2Se-200724-021032-f65293 0.0257 114.918433 -2.30663259E+004 0 0 6 (P21/m) n - 1
REM
REM Run started: Fri, 24 Jul 2020 03:13:04 +0100 in /rds/user/bz240/hpc-work/airss-fw/launch_tmp/launcher_2020-07-24-01-10-30-939630
REM CASTEP 19.11| from code version Version unavailable
REM Functional Perdew Burke Ernzerhof Relativity Koelling-Harmon Dispersion off
REM Cut-off 300.0000 eV Grid scale 1.7500 Gmax 15.5288 1/A FBSC none
REM MP grid 4 4 3 Offset 0.000 0.000 0.000 No. kpts 24 Spacing 0.07
REM Total runtime: 4048.01 s
REM Overall efficiency: 93.4545 %
REM
REM 2Ag2Se.cell (28ba953ba57c5a31f5193472e679a60a)
REM
REM compiler GCC version 4.8.5 20150623 (Red Hat 4.8.5-39)
REM options -cpp -mtune=generic -march=x86-64 -g -Og
REM COMMAND_LINE
REM seed 1906253722 904394504 -570786889 444000525 102524672 1076068214 -1354746104 -950339182 -1629502352 -1925760780 -448678556 351002946
REM
REM Se 3|2.1|7|7|9|40:41:32(qc=5)
REM Ag 3|2.2|7|7|9|40U:50:41:42(qc=5)
REM 
CELL 1.54180    4.13724    4.14277    6.77990   81.49119   89.81702   89.34512
LATT -1
SFAC Se Ag 
Se     1 -0.2502268047662 -0.1802965128299 -0.2883498790272 1.0
Se     1  0.2502268047662  0.1802965128299  0.2883498790272 1.0
Ag     2 -0.2497924167274  0.2523091231434  0.0002858606937 1.0
Ag     2  0.2497924167274 -0.2523091231434 -0.0002858606937 1.0
Ag     2 -0.2515407988999 -0.3486574942454  0.3333626725800 1.0
Ag     2  0.2515407988999  0.3486574942454 -0.3333626725800 1.0
END
