TITL 2Ag2Se-200724-024102-744dbe 0.0107 115.336823 -2.30661509E+004 0 0 6 (P21) n - 1
REM
REM Run started: Fri, 24 Jul 2020 02:58:15 +0100 in /scratch/scratch/uccabz1/launch_tmp/launcher_2020-07-24-01-41-00-625256
REM CASTEP 19.11| from code version Version unavailable
REM Functional Perdew Burke Ernzerhof Relativity Koelling-Harmon Dispersion off
REM Cut-off 300.0000 eV Grid scale 1.7500 Gmax 15.5288 1/A FBSC none
REM MP grid 4 4 3 Offset 0.000 0.000 0.000 No. kpts 16 Spacing 0.07
REM Total runtime: 1190.9 s
REM Overall efficiency: 90 %
REM
REM 2Ag2Se.cell (28ba953ba57c5a31f5193472e679a60a)
REM
REM compiler GCC version 4.9.2
REM options -cpp -iprefix /scratch/UCL/applications/gcc/4.9.2/bin/../lib/gcc/x86_64-unknown-linux-gnu/4.9.2/ -mtune=corei7 -march=x86-64 -g -O2
REM COMMAND_LINE
REM seed 187635231 1598654244 -513919699 1112421202 -352393987 1579378289 -1388156415 -375431432 -228205406 1693287191 737532456 1268950336
REM
REM Se 3|2.1|7|7|9|40:41:32(qc=5)
REM Ag 3|2.2|7|7|9|40U:50:41:42(qc=5)
REM 
CELL 1.54180    4.23833    5.04005    5.99944   90.00000   90.00000  115.84589
LATT -1
SFAC Se Ag 
Se     1 -0.1297627087623 -0.2804111619944  0.1488881435734 1.0
Se     1  0.1297627087623  0.2804111619944 -0.3511118564266 1.0
Ag     2  0.1704453385985  0.3351759174924  0.1270118964958 1.0
Ag     2 -0.1704453385985 -0.3351759174924 -0.3729881035042 1.0
Ag     2 -0.4878456287763  0.0254697905382  0.3851209599309 1.0
Ag     2  0.4878456287763 -0.0254697905382 -0.1148790400691 1.0
END
