TITL 2Ag2Se-200724-024633-f0c7bf 0.0302 127.779847 -2.30662586E+004 0 0 6 (Cmc21) n - 1
REM
REM Run started: Fri, 24 Jul 2020 03:05:11 +0100 in /rds/user/bz240/hpc-work/airss-fw/launch_tmp/launcher_2020-07-24-01-46-31-839160
REM CASTEP 19.11| from code version Version unavailable
REM Functional Perdew Burke Ernzerhof Relativity Koelling-Harmon Dispersion off
REM Cut-off 300.0000 eV Grid scale 1.7500 Gmax 15.5288 1/A FBSC none
REM MP grid 4 4 3 Offset 0.000 0.000 0.000 No. kpts 12 Spacing 0.07
REM Total runtime: 1162.62 s
REM Overall efficiency: 88 %
REM
REM 2Ag2Se.cell (28ba953ba57c5a31f5193472e679a60a)
REM
REM compiler GCC version 4.8.5 20150623 (Red Hat 4.8.5-39)
REM options -cpp -mtune=generic -march=x86-64 -g -Og
REM COMMAND_LINE
REM seed -1452747605 -1838985323 -1892511222 -1740502132 -370025382 231441895 -1724343849 372800374 789089539 648234675 1241846129 -2104489588
REM
REM Se 3|2.1|7|7|9|40:41:32(qc=5)
REM Ag 3|2.2|7|7|9|40U:50:41:42(qc=5)
REM 
CELL 1.54180    4.66194    4.66194    6.12206   90.00000   90.00000  106.18746
LATT -1
SFAC Se Ag 
Se     1  0.2961247576569  0.2961247576569  0.1039992116967 1.0
Se     1 -0.2961247576569 -0.2961247576569 -0.3960007883033 1.0
Ag     2 -0.1230578405288  0.2603342124177 -0.2261163058483 1.0
Ag     2  0.1230578405288 -0.2603342124177  0.2738836941517 1.0
Ag     2 -0.2603342124177  0.1230578405288  0.2738836941517 1.0
Ag     2  0.2603342124177 -0.1230578405288 -0.2261163058483 1.0
END
