TITL 2Ag2Se-200724-010245-3455d3 -0.0307 113.856655 -2.30660507E+004 0 0 6 (Cmcm) n - 1
REM
REM Run started: Fri, 24 Jul 2020 01:16:11 +0100 in /rds/user/bz240/hpc-work/airss-fw/launch_tmp/launcher_2020-07-24-00-02-43-279169
REM CASTEP 19.11| from code version Version unavailable
REM Functional Perdew Burke Ernzerhof Relativity Koelling-Harmon Dispersion off
REM Cut-off 300.0000 eV Grid scale 1.7500 Gmax 15.5288 1/A FBSC none
REM MP grid 4 4 2 Offset 0.000 0.000 0.000 No. kpts 8 Spacing 0.07
REM Total runtime: 838.33 s
REM Overall efficiency: 86.8571 %
REM
REM 2Ag2Se.cell (28ba953ba57c5a31f5193472e679a60a)
REM
REM compiler GCC version 4.8.5 20150623 (Red Hat 4.8.5-39)
REM options -cpp -mtune=generic -march=x86-64 -g -Og
REM COMMAND_LINE
REM seed 1708524258 -99413886 1915849504 -2041077987 46403670 929326365 324739456 1276857207 1135183917 944304044 879276643 -1952969982
REM
REM Se 3|2.1|7|7|9|40:41:32(qc=5)
REM Ag 3|2.2|7|7|9|40U:50:41:42(qc=5)
REM 
CELL 1.54180    3.69278    3.71552    8.29876   90.00000   90.00000   90.64626
LATT -1
SFAC Se Ag 
Se     1  0.2647061500948  0.2288800338492  0.2500000000000 1.0
Se     1 -0.2647061500948 -0.2288800338492 -0.2500000000000 1.0
Ag     2  0.2443206390875  0.2584795378258 -0.0815177621852 1.0
Ag     2 -0.2443206390875 -0.2584795378258  0.4184822378148 1.0
Ag     2 -0.2443206390875 -0.2584795378258  0.0815177621852 1.0
Ag     2  0.2443206390875  0.2584795378258 -0.4184822378148 1.0
END
