TITL 2Ag2Se-200724-010245-20e397 -0.0262 133.996894 -2.30659493E+004 0 0 6 (Pmc21) n - 1
REM
REM Run started: Fri, 24 Jul 2020 01:13:18 +0100 in /rds/user/bz240/hpc-work/airss-fw/launch_tmp/launcher_2020-07-24-00-02-43-279232
REM CASTEP 19.11| from code version Version unavailable
REM Functional Perdew Burke Ernzerhof Relativity Koelling-Harmon Dispersion off
REM Cut-off 300.0000 eV Grid scale 1.7500 Gmax 15.5288 1/A FBSC none
REM MP grid 4 4 2 Offset 0.000 0.000 0.000 No. kpts 8 Spacing 0.07
REM Total runtime: 780.92 s
REM Overall efficiency: 88.5 %
REM
REM 2Ag2Se.cell (28ba953ba57c5a31f5193472e679a60a)
REM
REM compiler GCC version 4.8.5 20150623 (Red Hat 4.8.5-39)
REM options -cpp -mtune=generic -march=x86-64 -g -Og
REM COMMAND_LINE
REM seed 1798953456 -853166967 1430154982 403477276 697412925 -2016373761 -1041180319 -1288108606 -360508748 860893158 1902796314 248727385
REM
REM Se 3|2.1|7|7|9|40:41:32(qc=5)
REM Ag 3|2.2|7|7|9|40U:50:41:42(qc=5)
REM 
CELL 1.54180    4.08501    4.44782    7.37492   90.00000   90.20019   90.00000
LATT -1
SFAC Se Ag 
Se     1  0.4902069101790 -0.1037872410919 -0.3153781453634 1.0
Se     1  0.4902069101790  0.1037872410919  0.1846218546366 1.0
Ag     2 -0.0106131826916  0.0170842933598  0.4375242939627 1.0
Ag     2 -0.0106131826916 -0.0170842933598 -0.0624757060373 1.0
Ag     2  0.4884304725126  0.4844825574518 -0.0756142485993 1.0
Ag     2  0.4884304725126 -0.4844825574518  0.4243857514007 1.0
END
