TITL 2Ag2Se-200724-020420-3f051d 0.0576 121.555716 -2.30661923E+004 0 0 6 (P21/c) n - 1
REM
REM Run started: Fri, 24 Jul 2020 02:17:52 +0100 in /rds/user/bz240/hpc-work/airss-fw/launch_tmp/launcher_2020-07-24-01-04-18-071093
REM CASTEP 19.11| from code version Version unavailable
REM Functional Perdew Burke Ernzerhof Relativity Koelling-Harmon Dispersion off
REM Cut-off 300.0000 eV Grid scale 1.7500 Gmax 15.5288 1/A FBSC none
REM MP grid 4 4 3 Offset 0.000 0.000 0.000 No. kpts 16 Spacing 0.07
REM Total runtime: 851.73 s
REM Overall efficiency: 88.1667 %
REM
REM 2Ag2Se.cell (28ba953ba57c5a31f5193472e679a60a)
REM
REM compiler GCC version 4.8.5 20150623 (Red Hat 4.8.5-39)
REM options -cpp -mtune=generic -march=x86-64 -g -Og
REM COMMAND_LINE
REM seed -1692669751 1593295554 337151450 -621320672 -684339093 676639206 946771124 -996527281 -1469731754 468256796 -903402144 -479592265
REM
REM Se 3|2.1|7|7|9|40:41:32(qc=5)
REM Ag 3|2.2|7|7|9|40U:50:41:42(qc=5)
REM 
CELL 1.54180    4.46379    4.55053    6.59576   90.00000   90.00000  114.86694
LATT -1
SFAC Se Ag 
Se     1 -0.0650354000169  0.3417292374817 -0.2514171111260 1.0
Se     1  0.4349645999831  0.8417292374817  0.2514171111260 1.0
Ag     2  0.1106592762088  0.1891192440343  0.1274505984907 1.0
Ag     2 -0.3893407237912 -0.3108807559657 -0.1274505984907 1.0
Ag     2 -0.2272512761919 -0.4967754815161  0.3675073358072 1.0
Ag     2  0.2727487238081  0.0032245184839 -0.3675073358072 1.0
END
