TITL 2Ag2Se-200724-010245-a2f34b -0.0298 116.821166 -2.30660202E+004 0 0 6 (P-1) n - 1
REM
REM Run started: Fri, 24 Jul 2020 01:37:10 +0100 in /rds/user/bz240/hpc-work/airss-fw/launch_tmp/launcher_2020-07-24-00-02-43-275047
REM CASTEP 19.11| from code version Version unavailable
REM Functional Perdew Burke Ernzerhof Relativity Koelling-Harmon Dispersion off
REM Cut-off 300.0000 eV Grid scale 1.7500 Gmax 15.5288 1/A FBSC none
REM MP grid 4 3 3 Offset 0.000 0.000 0.000 No. kpts 18 Spacing 0.07
REM Total runtime: 2118.1 s
REM Overall efficiency: 93.125 %
REM
REM 2Ag2Se.cell (28ba953ba57c5a31f5193472e679a60a)
REM
REM compiler GCC version 4.8.5 20150623 (Red Hat 4.8.5-39)
REM options -cpp -mtune=generic -march=x86-64 -g -Og
REM COMMAND_LINE
REM seed -800135613 -1986392288 1499443174 1686453852 993415818 -1990589388 703554634 -1426558293 -331595060 671718737 263014595 236773054
REM
REM Se 3|2.1|7|7|9|40:41:32(qc=5)
REM Ag 3|2.2|7|7|9|40U:50:41:42(qc=5)
REM 
CELL 1.54180    4.06667    5.46683    6.02985  113.70914  107.85528   82.36057
LATT -1
SFAC Se Ag 
Se     1  0.2726346660739 -0.1767412658081  0.1547895075080 1.0
Se     1 -0.2726346660739  0.1767412658081 -0.1547895075080 1.0
Ag     2 -0.0861001422779 -0.2680066824034  0.4350655891753 1.0
Ag     2  0.0861001422779  0.2680066824034 -0.4350655891753 1.0
Ag     2 -0.3936728223637 -0.3276327807738 -0.2210522819784 1.0
Ag     2  0.3936728223637  0.3276327807738  0.2210522819784 1.0
END
