TITL 2Ag2Se-200724-012425-1eeae0 0.0128 124.905022 -2.30662433E+004 0 0 6 (P21/m) n - 1
REM
REM Run started: Fri, 24 Jul 2020 01:50:47 +0100 in /rds/user/bz240/hpc-work/airss-fw/launch_tmp/launcher_2020-07-24-00-24-23-380788
REM CASTEP 19.11| from code version Version unavailable
REM Functional Perdew Burke Ernzerhof Relativity Koelling-Harmon Dispersion off
REM Cut-off 300.0000 eV Grid scale 1.7500 Gmax 15.5288 1/A FBSC none
REM MP grid 4 4 3 Offset 0.000 0.000 0.000 No. kpts 16 Spacing 0.07
REM Total runtime: 1793.24 s
REM Overall efficiency: 92.125 %
REM
REM 2Ag2Se.cell (28ba953ba57c5a31f5193472e679a60a)
REM
REM compiler GCC version 4.8.5 20150623 (Red Hat 4.8.5-39)
REM options -cpp -mtune=generic -march=x86-64 -g -Og
REM COMMAND_LINE
REM seed 482067875 -2000887569 -2075684253 -278763650 -898755098 -13722174 -861958921 -548974444 -1895865110 808958869 524640734 -1522697273
REM
REM Se 3|2.1|7|7|9|40:41:32(qc=5)
REM Ag 3|2.2|7|7|9|40U:50:41:42(qc=5)
REM 
CELL 1.54180    4.25017    4.66004    6.44284   90.00000   90.00000  101.81069
LATT -1
SFAC Se Ag 
Se     1  0.1761710596007  0.1945644415711  0.2500000000000 1.0
Se     1 -0.1761710596007 -0.1945644415711 -0.2500000000000 1.0
Ag     2  0.6916384937726  0.2878505565775 -0.0229900110448 1.0
Ag     2 -0.6916384937726 -0.2878505565775  0.4770099889552 1.0
Ag     2 -0.6916384937726 -0.2878505565775  0.0229900110448 1.0
Ag     2  0.6916384937726  0.2878505565775 -0.4770099889552 1.0
END
