TITL 2Ag2Se-200724-024706-ae6aeb -0.0323 144.702535 -2.30652631E+004 0 0 6 (P63/mmc) n - 1
REM
REM Run started: Fri, 24 Jul 2020 02:52:51 +0100 in /scratch/scratch/uccabz1/launch_tmp/launcher_2020-07-24-01-47-04-750018
REM CASTEP 19.11| from code version Version unavailable
REM Functional Perdew Burke Ernzerhof Relativity Koelling-Harmon Dispersion off
REM Cut-off 300.0000 eV Grid scale 1.7500 Gmax 15.5288 1/A FBSC none
REM MP grid 4 4 2 Offset 0.000 0.000 0.000 No. kpts 8 Spacing 0.07
REM Total runtime: 406.87 s
REM Overall efficiency: 83.2 %
REM
REM 2Ag2Se.cell (28ba953ba57c5a31f5193472e679a60a)
REM
REM compiler GCC version 4.9.2
REM options -cpp -iprefix /scratch/UCL/applications/gcc/4.9.2/bin/../lib/gcc/x86_64-unknown-linux-gnu/4.9.2/ -mtune=corei7 -march=x86-64 -g -O2
REM COMMAND_LINE
REM seed -1396982934 -908900495 -186453794 -1749336619 1201990244 563526819 1810710719 910952903 -135264325 1901255314 1671398001 -1908521333
REM
REM Se 3|2.1|7|7|9|40:41:32(qc=5)
REM Ag 3|2.2|7|7|9|40U:50:41:42(qc=5)
REM 
CELL 1.54180    4.54314    4.57518    8.01994   90.00000   90.00000  119.76810
LATT -1
SFAC Se Ag 
Se     1  0.4930180000000 -0.4931639000000 -0.2500000000000 1.0
Se     1  0.4930180000000 -0.4931639000000  0.2500000000000 1.0
Ag     2  0.1599364015596 -0.1593270968809 -0.1778549647189 1.0
Ag     2  0.1599364015596 -0.1593270968809  0.1778549647189 1.0
Ag     2 -0.1739004015596  0.1729992968809  0.3221450352811 1.0
Ag     2 -0.1739004015596  0.1729992968809 -0.3221450352811 1.0
END
