TITL 2Ag2Se-200724-010245-b4b4eb -0.0073 116.097738 -2.30660368E+004 0 0 6 (P-1) n - 1
REM
REM Run started: Fri, 24 Jul 2020 02:33:15 +0100 in /rds/user/bz240/hpc-work/airss-fw/launch_tmp/launcher_2020-07-24-00-02-43-287965
REM CASTEP 19.11| from code version Version unavailable
REM Functional Perdew Burke Ernzerhof Relativity Koelling-Harmon Dispersion off
REM Cut-off 300.0000 eV Grid scale 1.7500 Gmax 15.5288 1/A FBSC none
REM MP grid 6 3 3 Offset 0.000 0.000 0.000 No. kpts 27 Spacing 0.07
REM Total runtime: 5971.02 s
REM Overall efficiency: 94.6923 %
REM
REM 2Ag2Se.cell (28ba953ba57c5a31f5193472e679a60a)
REM
REM compiler GCC version 4.8.5 20150623 (Red Hat 4.8.5-39)
REM options -cpp -mtune=generic -march=x86-64 -g -Og
REM COMMAND_LINE
REM seed 713234950 1926722156 1453950643 922010286 476827196 -1760752452 -1644081218 1142476478 -199064294 747403063 273388637 -822709602
REM
REM Se 3|2.1|7|7|9|40:41:32(qc=5)
REM Ag 3|2.2|7|7|9|40U:50:41:42(qc=5)
REM 
CELL 1.54180    2.92434    6.45048    7.27535  111.13327   91.82137  112.35291
LATT -1
SFAC Se Ag 
Se     1 -0.3646436098265 -0.6448132076493 -0.2914872303077 1.0
Se     1  0.3646436098265  0.6448132076493  0.2914872303077 1.0
Ag     2 -0.0505926628098  0.1589435804656  0.3530243301650 1.0
Ag     2  0.0505926628098 -0.1589435804656 -0.3530243301650 1.0
Ag     2  0.4620609808440  0.2208326111823  0.0342758876980 1.0
Ag     2 -0.4620609808440 -0.2208326111823 -0.0342758876980 1.0
END
