TITL 2Ag2Se-200724-011702-d4c321 0.0612 122.922817 -2.30662919E+004 0 0 6 (P-1) n - 1
REM
REM Run started: Fri, 24 Jul 2020 01:43:42 +0100 in /rds/user/bz240/hpc-work/airss-fw/launch_tmp/launcher_2020-07-24-00-17-00-164751
REM CASTEP 19.11| from code version Version unavailable
REM Functional Perdew Burke Ernzerhof Relativity Koelling-Harmon Dispersion off
REM Cut-off 300.0000 eV Grid scale 1.7500 Gmax 15.5288 1/A FBSC none
REM MP grid 4 4 3 Offset 0.000 0.000 0.000 No. kpts 24 Spacing 0.07
REM Total runtime: 1800.72 s
REM Overall efficiency: 92.8333 %
REM
REM 2Ag2Se.cell (28ba953ba57c5a31f5193472e679a60a)
REM
REM compiler GCC version 4.8.5 20150623 (Red Hat 4.8.5-39)
REM options -cpp -mtune=generic -march=x86-64 -g -Og
REM COMMAND_LINE
REM seed -1050523598 -655550140 -1668453079 1643601952 1829086640 196465666 -1354591283 875186927 -468898614 -1102897295 265009928 403749495
REM
REM Se 3|2.1|7|7|9|40:41:32(qc=5)
REM Ag 3|2.2|7|7|9|40U:50:41:42(qc=5)
REM 
CELL 1.54180    4.16916    4.53260    6.72878   92.21135   91.43934   75.36676
LATT -1
SFAC Se Ag 
Se     1 -0.3356846100638 -0.1961078657302 -0.2601493047494 1.0
Se     1  0.3356846100638  0.1961078657302  0.2601493047494 1.0
Ag     2  0.1958030573671 -0.2851565738217  0.0461089537676 1.0
Ag     2 -0.1958030573671  0.2851565738217 -0.0461089537676 1.0
Ag     2  0.2628459561344  0.3951649938059 -0.3521303785472 1.0
Ag     2 -0.2628459561344 -0.3951649938059  0.3521303785472 1.0
END
