TITL 2Ag2Se-200724-013222-6a9b86 0.0450 116.973570 -2.30663504E+004 0 0 6 (P21/m) n - 1
REM
REM Run started: Fri, 24 Jul 2020 01:42:57 +0100 in /scratch/scratch/uccabz1/launch_tmp/launcher_2020-07-24-00-32-21-232695
REM CASTEP 19.11| from code version Version unavailable
REM Functional Perdew Burke Ernzerhof Relativity Koelling-Harmon Dispersion off
REM Cut-off 300.0000 eV Grid scale 1.7500 Gmax 15.5288 1/A FBSC none
REM MP grid 4 4 3 Offset 0.000 0.000 0.000 No. kpts 12 Spacing 0.07
REM Total runtime: 677.23 s
REM Overall efficiency: 83.8333 %
REM
REM 2Ag2Se.cell (28ba953ba57c5a31f5193472e679a60a)
REM
REM compiler GCC version 4.9.2
REM options -cpp -iprefix /scratch/UCL/applications/gcc/4.9.2/bin/../lib/gcc/x86_64-unknown-linux-gnu/4.9.2/ -mtune=corei7 -march=x86-64 -g -O2
REM COMMAND_LINE
REM seed -1006084968 -1246878142 131809299 -773697028 -830483328 1864034571 -1153817467 -846343163 814133943 -544992911 -789928436 51508496
REM
REM Se 3|2.1|7|7|9|40:41:32(qc=5)
REM Ag 3|2.2|7|7|9|40U:50:41:42(qc=5)
REM 
CELL 1.54180    4.17344    4.16754    6.73851   93.58187   90.00000   90.00000
LATT -1
SFAC Se Ag 
Se     1 -0.2702251000000 -0.2756891135718  0.2147309957252 1.0
Se     1  0.2297749000000  0.2756891135718 -0.2147309957252 1.0
Ag     2 -0.2702251000000  0.2492983656176  0.5002380787084 1.0
Ag     2  0.2297749000000 -0.2492983656176 -0.5002380787084 1.0
Ag     2  0.2297749000000  0.2130646094471  0.1848089182501 1.0
Ag     2 -0.2702251000000 -0.2130646094471 -0.1848089182501 1.0
END
