TITL 2Ag2Se-200724-020740-74fc67 0.0428 114.880377 -2.30663239E+004 0 0 6 (P21/m) n - 1
REM
REM Run started: Fri, 24 Jul 2020 02:18:25 +0100 in /rds/user/bz240/hpc-work/airss-fw/launch_tmp/launcher_2020-07-24-01-07-38-807971
REM CASTEP 19.11| from code version Version unavailable
REM Functional Perdew Burke Ernzerhof Relativity Koelling-Harmon Dispersion off
REM Cut-off 300.0000 eV Grid scale 1.7500 Gmax 15.5288 1/A FBSC none
REM MP grid 4 4 3 Offset 0.000 0.000 0.000 No. kpts 12 Spacing 0.07
REM Total runtime: 683.37 s
REM Overall efficiency: 87.6667 %
REM
REM 2Ag2Se.cell (28ba953ba57c5a31f5193472e679a60a)
REM
REM compiler GCC version 4.8.5 20150623 (Red Hat 4.8.5-39)
REM options -cpp -mtune=generic -march=x86-64 -g -Og
REM COMMAND_LINE
REM seed 112058178 1010836602 151757911 -1583776797 -905614543 -1664857459 -811600282 -297680365 -850554419 2002598687 -2030695608 -2080494066
REM
REM Se 3|2.1|7|7|9|40:41:32(qc=5)
REM Ag 3|2.2|7|7|9|40U:50:41:42(qc=5)
REM 
CELL 1.54180    4.13227    4.11006    6.83303   81.85385   90.00000   90.00000
LATT -1
SFAC Se Ag 
Se     1  0.0309187000000 -0.1780094417734  0.2126759619322 1.0
Se     1 -0.4690813000000  0.1780094417734 -0.2126759619322 1.0
Ag     2  0.0309187000000  0.2531656616382  0.5004470118401 1.0
Ag     2 -0.4690813000000 -0.2531656616382 -0.5004470118401 1.0
Ag     2  0.0309187000000 -0.3508518835007 -0.1647834871258 1.0
Ag     2 -0.4690813000000  0.3508518835007  0.1647834871258 1.0
END
