TITL 2Ag2Se-200724-012925-ac408a 0.0640 128.247329 -2.30663517E+004 0 0 6 (C2/c) n - 1
REM
REM Run started: Fri, 24 Jul 2020 01:47:34 +0100 in /rds/user/bz240/hpc-work/airss-fw/launch_tmp/launcher_2020-07-24-00-29-23-020117
REM CASTEP 19.11| from code version Version unavailable
REM Functional Perdew Burke Ernzerhof Relativity Koelling-Harmon Dispersion off
REM Cut-off 300.0000 eV Grid scale 1.7500 Gmax 15.5288 1/A FBSC none
REM MP grid 4 4 3 Offset 0.000 0.000 0.000 No. kpts 16 Spacing 0.07
REM Total runtime: 1337.82 s
REM Overall efficiency: 91.2857 %
REM
REM 2Ag2Se.cell (28ba953ba57c5a31f5193472e679a60a)
REM
REM compiler GCC version 4.8.5 20150623 (Red Hat 4.8.5-39)
REM options -cpp -mtune=generic -march=x86-64 -g -Og
REM COMMAND_LINE
REM seed -311122584 448625212 -1013731391 1272111811 1049663448 409204253 -1027647164 621212030 22837683 -1969724238 1873022499 -961476220
REM
REM Se 3|2.1|7|7|9|40:41:32(qc=5)
REM Ag 3|2.2|7|7|9|40U:50:41:42(qc=5)
REM 
CELL 1.54180    4.61862    4.61862    6.03462   86.53725   86.53725   89.02637
LATT -1
SFAC Se Ag 
Se     1  0.4662785343537  0.0237192656463 -0.2814021000000 1.0
Se     1  0.0237192656463  0.4662785343537  0.2185979000000 1.0
Ag     2 -0.4499507765722  0.5059849345164 -0.0442620687994 1.0
Ag     2  0.5059849345164 -0.4499507765722  0.4557379312006 1.0
Ag     2 -0.0159871345164 -0.0600514234278  0.4814578687994 1.0
Ag     2 -0.0600514234278 -0.0159871345164 -0.0185421312006 1.0
END
