TITL 2Ag2Se-200724-030723-ddb499 -0.0380 130.281208 -2.30663346E+004 0 0 6 (R32) n - 1
REM
REM Run started: Fri, 24 Jul 2020 03:19:48 +0100 in /rds/user/bz240/hpc-work/airss-fw/launch_tmp/launcher_2020-07-24-02-07-21-138174
REM CASTEP 19.11| from code version Version unavailable
REM Functional Perdew Burke Ernzerhof Relativity Koelling-Harmon Dispersion off
REM Cut-off 300.0000 eV Grid scale 1.7500 Gmax 15.5288 1/A FBSC none
REM MP grid 3 3 3 Offset 0.000 0.000 0.000 No. kpts 6 Spacing 0.07
REM Total runtime: 944.9 s
REM Overall efficiency: 88.8571 %
REM
REM 2Ag2Se.cell (28ba953ba57c5a31f5193472e679a60a)
REM
REM compiler GCC version 4.8.5 20150623 (Red Hat 4.8.5-39)
REM options -cpp -mtune=generic -march=x86-64 -g -Og
REM COMMAND_LINE
REM seed -508627754 35601821 233898392 -66232779 1176175820 -922533356 1732694441 -1595412246 1352179987 2008200285 -1025299410 -2004855864
REM
REM Se 3|2.1|7|7|9|40:41:32(qc=5)
REM Ag 3|2.2|7|7|9|40U:50:41:42(qc=5)
REM 
CELL 1.54180    5.06946    5.06946    5.06946   90.12559   90.12559   90.12559
LATT -1
SFAC Se Ag 
Se     1  0.4648990664033  0.4648990664033  0.4648990664033 1.0
Se     1  0.0532153744978  0.0532153744978  0.0532153744978 1.0
Ag     2 -0.4405887356036  0.2581355445912 -0.0404597559902 1.0
Ag     2  0.2581355445912 -0.0404597559902 -0.4405887356036 1.0
Ag     2 -0.0404597559902 -0.4405887356036  0.2581355445912 1.0
Ag     2 -0.2412505938985 -0.2412505938985 -0.2412505938985 1.0
END
