TITL 2Ag2Se-200724-020006-988e1b -0.0040 128.006407 -2.30663459E+004 0 0 6 (Pmmn) n - 1
REM
REM Run started: Fri, 24 Jul 2020 02:05:38 +0100 in /scratch/scratch/uccabz1/launch_tmp/launcher_2020-07-24-01-00-04-472790
REM CASTEP 19.11| from code version Version unavailable
REM Functional Perdew Burke Ernzerhof Relativity Koelling-Harmon Dispersion off
REM Cut-off 300.0000 eV Grid scale 1.7500 Gmax 15.5288 1/A FBSC none
REM MP grid 4 4 3 Offset 0.000 0.000 0.000 No. kpts 8 Spacing 0.07
REM Total runtime: 390.48 s
REM Overall efficiency: 82.6 %
REM
REM 2Ag2Se.cell (28ba953ba57c5a31f5193472e679a60a)
REM
REM compiler GCC version 4.9.2
REM options -cpp -iprefix /scratch/UCL/applications/gcc/4.9.2/bin/../lib/gcc/x86_64-unknown-linux-gnu/4.9.2/ -mtune=corei7 -march=x86-64 -g -O2
REM COMMAND_LINE
REM seed 2112368092 910423763 -314989754 1115341273 866206677 938012067 -1460219724 2024281274 -1029591110 -1563639856 -553102085 533109300
REM
REM Se 3|2.1|7|7|9|40:41:32(qc=5)
REM Ag 3|2.2|7|7|9|40U:50:41:42(qc=5)
REM 
CELL 1.54180    4.60353    4.68246    5.93836   90.00000   90.00000   90.00000
LATT -1
SFAC Se Ag 
Se     1 -0.2411331000000  0.1872382713368  0.0000000000000 1.0
Se     1  0.2588669000000 -0.1872382713368  0.5000000000000 1.0
Ag     2 -0.2411331000000 -0.3153396252455 -0.2558492872921 1.0
Ag     2  0.2588669000000  0.3153396252455 -0.2441507127079 1.0
Ag     2  0.2588669000000  0.3153396252455  0.2441507127079 1.0
Ag     2 -0.2411331000000 -0.3153396252455  0.2558492872921 1.0
END
