TITL 2Ag2Se-200724-020507-7f162e -0.0184 113.978043 -2.30658721E+004 0 0 6 (Cmme) n - 1
REM
REM Run started: Fri, 24 Jul 2020 02:12:37 +0100 in /rds/user/bz240/hpc-work/airss-fw/launch_tmp/launcher_2020-07-24-01-05-05-307317
REM CASTEP 19.11| from code version Version unavailable
REM Functional Perdew Burke Ernzerhof Relativity Koelling-Harmon Dispersion off
REM Cut-off 300.0000 eV Grid scale 1.7500 Gmax 15.5288 1/A FBSC none
REM MP grid 4 4 3 Offset 0.000 0.000 0.000 No. kpts 12 Spacing 0.07
REM Total runtime: 630.93 s
REM Overall efficiency: 89 %
REM
REM 2Ag2Se.cell (28ba953ba57c5a31f5193472e679a60a)
REM
REM compiler GCC version 4.8.5 20150623 (Red Hat 4.8.5-39)
REM options -cpp -mtune=generic -march=x86-64 -g -Og
REM COMMAND_LINE
REM seed 291127633 -1493258357 122963659 1835337657 -1187160772 -1421521033 1213774005 589124448 221971703 899440151 1635649182 -907436138
REM
REM Se 3|2.1|7|7|9|40:41:32(qc=5)
REM Ag 3|2.2|7|7|9|40U:50:41:42(qc=5)
REM 
CELL 1.54180    4.93275    4.93275    5.24560   90.00000   90.00000  116.74838
LATT -1
SFAC Se Ag 
Se     1 -0.3819188229089  0.1180811770911 -0.2442002569954 1.0
Se     1 -0.8819188229089 -0.3819188229089  0.2442002569954 1.0
Ag     2  0.2791540256204  0.4413733972884 -0.2533841815022 1.0
Ag     2  0.4413733972884  0.2791540256204  0.2533841815022 1.0
Ag     2 -0.0586266027116 -0.2208459743796 -0.2533841815022 1.0
Ag     2 -0.2208459743796 -0.0586266027116  0.2533841815022 1.0
END
