TITL 2Ag2Se-200724-015521-c944a4 -0.0696 119.462226 -2.30658602E+004 0 0 6 (C2/c) n - 1
REM
REM Run started: Fri, 24 Jul 2020 02:06:03 +0100 in /rds/user/bz240/hpc-work/airss-fw/launch_tmp/launcher_2020-07-24-00-55-19-153804
REM CASTEP 19.11| from code version Version unavailable
REM Functional Perdew Burke Ernzerhof Relativity Koelling-Harmon Dispersion off
REM Cut-off 300.0000 eV Grid scale 1.7500 Gmax 15.5288 1/A FBSC none
REM MP grid 4 4 3 Offset 0.000 0.000 0.000 No. kpts 24 Spacing 0.07
REM Total runtime: 707.12 s
REM Overall efficiency: 90 %
REM
REM 2Ag2Se.cell (28ba953ba57c5a31f5193472e679a60a)
REM
REM compiler GCC version 4.8.5 20150623 (Red Hat 4.8.5-39)
REM options -cpp -mtune=generic -march=x86-64 -g -Og
REM COMMAND_LINE
REM seed -2050928900 1899186750 1910419621 -350418721 -1132168475 -1185767551 606794922 1015607215 -667034226 -1129348166 -1591822357 1179156373
REM
REM Se 3|2.1|7|7|9|40:41:32(qc=5)
REM Ag 3|2.2|7|7|9|40U:50:41:42(qc=5)
REM 
CELL 1.54180    4.86451    4.91441    6.35212   69.56707   67.48627   60.33530
LATT -1
SFAC Se Ag 
Se     1  0.2198378286292  0.2500000000000 -0.2500000000000 1.0
Se     1 -0.2198378286292 -0.2500000000000  0.2500000000000 1.0
Ag     2 -0.4423548759132 -0.4152598382284 -0.2608552937519 1.0
Ag     2 -0.1184700078936 -0.0847401617716 -0.2391447062481 1.0
Ag     2  0.4423548759132  0.4152598382284  0.2608552937519 1.0
Ag     2  0.1184700078936  0.0847401617716  0.2391447062481 1.0
END
