TITL 2Ag2Se-200724-014301-eb2b21 -0.0162 120.929445 -2.30657597E+004 0 0 6 (I4/mcm) n - 1
REM
REM Run started: Fri, 24 Jul 2020 01:48:16 +0100 in /rds/user/bz240/hpc-work/airss-fw/launch_tmp/launcher_2020-07-24-00-43-00-182607
REM CASTEP 19.11| from code version Version unavailable
REM Functional Perdew Burke Ernzerhof Relativity Koelling-Harmon Dispersion off
REM Cut-off 300.0000 eV Grid scale 1.7500 Gmax 15.5288 1/A FBSC none
REM MP grid 4 4 4 Offset 0.000 0.000 0.000 No. kpts 12 Spacing 0.07
REM Total runtime: 332.02 s
REM Overall efficiency: 83.8 %
REM
REM 2Ag2Se.cell (28ba953ba57c5a31f5193472e679a60a)
REM
REM compiler GCC version 4.8.5 20150623 (Red Hat 4.8.5-39)
REM options -cpp -mtune=generic -march=x86-64 -g -Og
REM COMMAND_LINE
REM seed -1788234511 -752800918 1653219919 -581755613 2085322324 -1251591101 -1127518268 -1199414389 566024614 -2086570317 -1272162053 -1655424594
REM
REM Se 3|2.1|7|7|9|40:41:32(qc=5)
REM Ag 3|2.2|7|7|9|40U:50:41:42(qc=5)
REM 
CELL 1.54180    5.51079    5.51079    5.51079   92.66668  118.47252  118.47252
LATT -1
SFAC Se Ag 
Se     1  0.0000000000000 -0.2497457243094 -0.2497457243094 1.0
Se     1  0.0000000000000  0.2497457243094  0.2497457243094 1.0
Ag     2  0.5000381042425 -0.3149298343708 -0.1850320613867 1.0
Ag     2 -0.5000381042425  0.3149298343708  0.1850320613867 1.0
Ag     2  0.1298977729841 -0.1850320613867  0.3149298343708 1.0
Ag     2 -0.1298977729841  0.1850320613867 -0.3149298343708 1.0
END
