TITL 2Ag2Se-200724-013216-c16a63 -0.0555 131.257661 -2.30660037E+004 0 0 6 (Cmcm) n - 1
REM
REM Run started: Fri, 24 Jul 2020 01:37:15 +0100 in /rds/user/bz240/hpc-work/airss-fw/launch_tmp/launcher_2020-07-24-00-32-13-725549
REM CASTEP 19.11| from code version Version unavailable
REM Functional Perdew Burke Ernzerhof Relativity Koelling-Harmon Dispersion off
REM Cut-off 300.0000 eV Grid scale 1.7500 Gmax 15.5288 1/A FBSC none
REM MP grid 4 3 3 Offset 0.000 0.000 0.000 No. kpts 8 Spacing 0.07
REM Total runtime: 358.25 s
REM Overall efficiency: 85.6 %
REM
REM 2Ag2Se.cell (28ba953ba57c5a31f5193472e679a60a)
REM
REM compiler GCC version 4.8.5 20150623 (Red Hat 4.8.5-39)
REM options -cpp -mtune=generic -march=x86-64 -g -Og
REM COMMAND_LINE
REM seed -2081179211 -1915170652 -667205155 1532945417 -1838525477 2143229258 1115285650 -1239609838 -357498211 -353709768 2022559592 -1714571279
REM
REM Se 3|2.1|7|7|9|40:41:32(qc=5)
REM Ag 3|2.2|7|7|9|40U:50:41:42(qc=5)
REM 
CELL 1.54180    4.66915    5.30469    5.30469   92.56132   90.00000   90.00000
LATT -1
SFAC Se Ag 
Se     1 -0.2500000000000 -0.2047477293082 -0.2164444293082 1.0
Se     1  0.2500000000000  0.2164444293082  0.2047477293082 1.0
Ag     2  0.2500000000000 -0.3143122030496  0.0668766697055 1.0
Ag     2 -0.2500000000000 -0.0668766697055  0.3143122030496 1.0
Ag     2  0.2500000000000  0.0785733697055 -0.3260089030496 1.0
Ag     2 -0.2500000000000  0.3260089030496 -0.0785733697055 1.0
END
