TITL 2Ag2Se-200724-005511-5bb1a9 0.0115 130.263656 -2.30663395E+004 0 0 6 (R32) n - 1
REM
REM Run started: Fri, 24 Jul 2020 01:02:51 +0100 in /rds/user/bz240/hpc-work/airss-fw/launch_tmp/launcher_2020-07-23-23-55-09-952117
REM CASTEP 19.11| from code version Version unavailable
REM Functional Perdew Burke Ernzerhof Relativity Koelling-Harmon Dispersion off
REM Cut-off 300.0000 eV Grid scale 1.7500 Gmax 15.5288 1/A FBSC none
REM MP grid 3 3 3 Offset 0.000 0.000 0.000 No. kpts 6 Spacing 0.07
REM Total runtime: 493.54 s
REM Overall efficiency: 85.1667 %
REM
REM 2Ag2Se.cell (28ba953ba57c5a31f5193472e679a60a)
REM
REM compiler GCC version 4.8.5 20150623 (Red Hat 4.8.5-39)
REM options -cpp -mtune=generic -march=x86-64 -g -Og
REM COMMAND_LINE
REM seed -943149720 122419487 -1869052620 1118973583 77305701 -1133859064 -1977767407 -2021226917 1005620407 -902982909 1303986664 813750659
REM
REM Se 3|2.1|7|7|9|40:41:32(qc=5)
REM Ag 3|2.2|7|7|9|40U:50:41:42(qc=5)
REM 
CELL 1.54180    5.06923    5.06923    5.06923   90.11411   90.11411   90.11411
LATT -1
SFAC Se Ag 
Se     1 -0.4215406871040 -0.4215406871040 -0.4215406871040 1.0
Se     1 -0.0099540816682 -0.0099540816682 -0.0099540816682 1.0
Ag     2  0.0846546718994 -0.5166581966770 -0.2147675398074 1.0
Ag     2 -0.2147675398074  0.0846546718994 -0.5166581966770 1.0
Ag     2 -0.5166581966770 -0.2147675398074  0.0846546718994 1.0
Ag     2  0.2841319333573  0.2841319333573  0.2841319333573 1.0
END
