TITL 2Ag2Se-200724-030645-a0d4aa -0.0183 114.081316 -2.30658634E+004 0 0 6 (Fmmm) n - 1
REM
REM Run started: Fri, 24 Jul 2020 03:13:16 +0100 in /scratch/scratch/uccabz1/launch_tmp/launcher_2020-07-24-02-06-42-613788
REM CASTEP 19.11| from code version Version unavailable
REM Functional Perdew Burke Ernzerhof Relativity Koelling-Harmon Dispersion off
REM Cut-off 300.0000 eV Grid scale 1.7500 Gmax 15.5288 1/A FBSC none
REM MP grid 3 4 4 Offset 0.000 0.000 0.000 No. kpts 12 Spacing 0.07
REM Total runtime: 446.38 s
REM Overall efficiency: 82.2 %
REM
REM 2Ag2Se.cell (28ba953ba57c5a31f5193472e679a60a)
REM
REM compiler GCC version 4.9.2
REM options -cpp -iprefix /scratch/UCL/applications/gcc/4.9.2/bin/../lib/gcc/x86_64-unknown-linux-gnu/4.9.2/ -mtune=corei7 -march=x86-64 -g -O2
REM COMMAND_LINE
REM seed -61658322 -1988198799 -1060919906 -323623990 -2030637952 1892952482 -1172017555 -1539217344 1862018700 -907798854 -1577772926 -299762184
REM
REM Se 3|2.1|7|7|9|40:41:32(qc=5)
REM Ag 3|2.2|7|7|9|40U:50:41:42(qc=5)
REM 
CELL 1.54180    5.14152    4.96001    4.96001  115.59140   90.00492   90.00492
LATT -1
SFAC Se Ag 
Se     1 -0.0000000000000  0.5000000000000  0.0000000000000 1.0
Se     1 -0.5000000000000  0.0000000000000 -0.5000000000000 1.0
Ag     2 -0.0000000000000  0.1686625062957  0.3313374937043 1.0
Ag     2  0.5000000000000 -0.3313374937043 -0.1686625062957 1.0
Ag     2 -0.0000000000000 -0.1686625062957 -0.3313374937043 1.0
Ag     2 -0.5000000000000  0.3313374937043  0.1686625062957 1.0
END
