TITL 2Ag2Se-200724-010245-0d2b1f 0.0379 127.974079 -2.30659529E+004 0 0 6 (Cm) n - 1
REM
REM Run started: Fri, 24 Jul 2020 01:09:04 +0100 in /rds/user/bz240/hpc-work/airss-fw/launch_tmp/launcher_2020-07-24-00-02-43-277949
REM CASTEP 19.11| from code version Version unavailable
REM Functional Perdew Burke Ernzerhof Relativity Koelling-Harmon Dispersion off
REM Cut-off 300.0000 eV Grid scale 1.7500 Gmax 15.5288 1/A FBSC none
REM MP grid 4 4 2 Offset 0.000 0.000 0.000 No. kpts 10 Spacing 0.07
REM Total runtime: 422.82 s
REM Overall efficiency: 71 %
REM
REM 2Ag2Se.cell (28ba953ba57c5a31f5193472e679a60a)
REM
REM compiler GCC version 4.8.5 20150623 (Red Hat 4.8.5-39)
REM options -cpp -mtune=generic -march=x86-64 -g -Og
REM COMMAND_LINE
REM seed 1979877627 -394158621 674131009 -1108233922 1846722491 -797337730 -1336606412 987222502 129378108 -72971978 876972024 -227691211
REM
REM Se 3|2.1|7|7|9|40:41:32(qc=5)
REM Ag 3|2.2|7|7|9|40U:50:41:42(qc=5)
REM 
CELL 1.54180    4.25019    4.25019    8.36199   76.45376   76.45376   61.71894
LATT -1
SFAC Se Ag 
Se     1  0.0333593545025  0.0333593545025 -0.0055125575318 1.0
Se     1 -0.4666406454975 -0.4666406454975  0.4944874424682 1.0
Ag     2 -0.2449218175387 -0.2449218175387 -0.1815099247487 1.0
Ag     2 -0.7449218175387  0.2550781824613  0.3184900752513 1.0
Ag     2 -0.3546837369638 -0.3546837369638  0.1584233822805 1.0
Ag     2  0.1453162630362  0.1453162630362 -0.3415766177195 1.0
END
