TITL 2Ag2Se-200724-030615-b47aeb -0.0011 124.453178 -2.30659442E+004 0 0 6 (Aem2) n - 1
REM
REM Run started: Fri, 24 Jul 2020 03:13:25 +0100 in /rds/user/bz240/hpc-work/airss-fw/launch_tmp/launcher_2020-07-24-02-06-13-232997
REM CASTEP 19.11| from code version Version unavailable
REM Functional Perdew Burke Ernzerhof Relativity Koelling-Harmon Dispersion off
REM Cut-off 300.0000 eV Grid scale 1.7500 Gmax 15.5288 1/A FBSC none
REM MP grid 3 3 3 Offset 0.000 0.000 0.000 No. kpts 8 Spacing 0.07
REM Total runtime: 550.27 s
REM Overall efficiency: 84.3333 %
REM
REM 2Ag2Se.cell (28ba953ba57c5a31f5193472e679a60a)
REM
REM compiler GCC version 4.8.5 20150623 (Red Hat 4.8.5-39)
REM options -cpp -mtune=generic -march=x86-64 -g -Og
REM COMMAND_LINE
REM seed 865409960 1194031429 1045752898 -1772006017 -64192246 -505373474 1953900890 1223634517 -1482442352 1431764279 -2128338178 1573430018
REM
REM Se 3|2.1|7|7|9|40:41:32(qc=5)
REM Ag 3|2.2|7|7|9|40U:50:41:42(qc=5)
REM 
CELL 1.54180    5.03306    5.03306    5.07525   90.00000   90.00000  104.52921
LATT -1
SFAC Se Ag 
Se     1  0.1129913947849 -0.3870086052151 -0.2567102587536 1.0
Se     1 -0.3870086052151  0.1129913947849  0.2567102587536 1.0
Ag     2 -0.3264596256989 -0.1756293690860 -0.2495056173888 1.0
Ag     2 -0.1756293690860 -0.3264596256989  0.2495056173888 1.0
Ag     2  0.3243706309140  0.1735403743011 -0.2495056173888 1.0
Ag     2  0.1735403743011  0.3243706309140  0.2495056173888 1.0
END
