TITL 2Ag2Se-200724-021628-2180b3 0.0090 127.484818 -2.30662863E+004 0 0 6 (Pc) n - 1
REM
REM Run started: Fri, 24 Jul 2020 02:23:46 +0100 in /rds/user/bz240/hpc-work/airss-fw/launch_tmp/launcher_2020-07-24-01-16-26-393856
REM CASTEP 19.11| from code version Version unavailable
REM Functional Perdew Burke Ernzerhof Relativity Koelling-Harmon Dispersion off
REM Cut-off 300.0000 eV Grid scale 1.7500 Gmax 15.5288 1/A FBSC none
REM MP grid 3 4 3 Offset 0.000 0.000 0.000 No. kpts 12 Spacing 0.07
REM Total runtime: 685.74 s
REM Overall efficiency: 71.6 %
REM
REM 2Ag2Se.cell (28ba953ba57c5a31f5193472e679a60a)
REM
REM compiler GCC version 4.8.5 20150623 (Red Hat 4.8.5-39)
REM options -cpp -mtune=generic -march=x86-64 -g -Og
REM COMMAND_LINE
REM seed -1879550522 770851422 -704994161 -881821753 -462417570 703243475 -494543912 1309012483 431246601 -357776607 -700566588 -505269068
REM
REM Se 3|2.1|7|7|9|40:41:32(qc=5)
REM Ag 3|2.2|7|7|9|40U:50:41:42(qc=5)
REM 
CELL 1.54180    5.10914    4.60477    5.41969   91.03855   90.00000   90.00000
LATT -1
SFAC Se Ag 
Se     1  0.2023037934604 -0.1457892492867  0.3520640885268 1.0
Se     1 -0.2023037934604  0.3542107507133 -0.1479359114732 1.0
Ag     2  0.3631657573464  0.3542282115861 -0.4105306698970 1.0
Ag     2 -0.3631657573464 -0.1457717884139  0.0894693301030 1.0
Ag     2 -0.1382423027116  0.3560540377006  0.3481521813702 1.0
Ag     2  0.1382423027116 -0.1439459622994 -0.1518478186298 1.0
END
