TITL 2Ag2Se-200724-010245-64d283 0.0278 116.611153 -2.30658401E+004 0 0 6 (P-1) n - 1
REM
REM Run started: Fri, 24 Jul 2020 01:15:56 +0100 in /rds/user/bz240/hpc-work/airss-fw/launch_tmp/launcher_2020-07-24-00-02-43-277557
REM CASTEP 19.11| from code version Version unavailable
REM Functional Perdew Burke Ernzerhof Relativity Koelling-Harmon Dispersion off
REM Cut-off 300.0000 eV Grid scale 1.7500 Gmax 15.5288 1/A FBSC none
REM MP grid 4 3 3 Offset 0.000 0.000 0.000 No. kpts 18 Spacing 0.07
REM Total runtime: 931.45 s
REM Overall efficiency: 92.8 %
REM
REM 2Ag2Se.cell (28ba953ba57c5a31f5193472e679a60a)
REM
REM compiler GCC version 4.8.5 20150623 (Red Hat 4.8.5-39)
REM options -cpp -mtune=generic -march=x86-64 -g -Og
REM COMMAND_LINE
REM seed -1729651909 -419203338 450780551 -21010136 -1603911455 1334425830 -139032625 -535962509 -267022668 -1392671460 -101621775 -92460846
REM
REM Se 3|2.1|7|7|9|40:41:32(qc=5)
REM Ag 3|2.2|7|7|9|40U:50:41:42(qc=5)
REM 
CELL 1.54180    4.58922    5.16788    5.33597   88.72243   67.18821   88.74169
LATT -1
SFAC Se Ag 
Se     1 -0.2533106022370 -0.2438096344542 -0.2409216714061 1.0
Se     1  0.2533106022370  0.2438096344542  0.2409216714061 1.0
Ag     2 -0.0868834772064  0.2539847868409 -0.0831334760794 1.0
Ag     2  0.0868834772064 -0.2539847868409  0.0831334760794 1.0
Ag     2 -0.6051358002022 -0.2482833552495  0.4488475578360 1.0
Ag     2  0.6051358002022  0.2482833552495 -0.4488475578360 1.0
END
