TITL 2Ag2Se-200724-020822-420ec6 0.0508 115.864549 -2.30663394E+004 0 0 6 (P-1) n - 1
REM
REM Run started: Fri, 24 Jul 2020 02:31:03 +0100 in /rds/user/bz240/hpc-work/airss-fw/launch_tmp/launcher_2020-07-24-01-08-20-695179
REM CASTEP 19.11| from code version Version unavailable
REM Functional Perdew Burke Ernzerhof Relativity Koelling-Harmon Dispersion off
REM Cut-off 300.0000 eV Grid scale 1.7500 Gmax 15.5288 1/A FBSC none
REM MP grid 4 4 3 Offset 0.000 0.000 0.000 No. kpts 24 Spacing 0.07
REM Total runtime: 1451.01 s
REM Overall efficiency: 91.8333 %
REM
REM 2Ag2Se.cell (28ba953ba57c5a31f5193472e679a60a)
REM
REM compiler GCC version 4.8.5 20150623 (Red Hat 4.8.5-39)
REM options -cpp -mtune=generic -march=x86-64 -g -Og
REM COMMAND_LINE
REM seed 517854998 -1385153558 1214308311 -1489321492 63153020 -2100441553 -761051848 -660608680 -1320142580 -882829599 969869959 -2125090766
REM
REM Se 3|2.1|7|7|9|40:41:32(qc=5)
REM Ag 3|2.2|7|7|9|40U:50:41:42(qc=5)
REM 
CELL 1.54180    4.13122    4.15146    6.80404   96.75461   90.34384   90.92617
LATT -1
SFAC Se Ag 
Se     1 -0.2507059314850  0.2010685547612  0.2125945292913 1.0
Se     1  0.2507059314850 -0.2010685547612 -0.2125945292913 1.0
Ag     2 -0.2516415470323  0.3246745912302 -0.1746314552864 1.0
Ag     2  0.2516415470323 -0.3246745912302  0.1746314552864 1.0
Ag     2  0.2501381298624  0.2514204121792 -0.4999650144188 1.0
Ag     2 -0.2501381298624 -0.2514204121792  0.4999650144188 1.0
END
