TITL 2Ag2Se-200724-015752-083813 0.0232 130.188905 -2.30663427E+004 0 0 6 (R32) n - 1
REM
REM Run started: Fri, 24 Jul 2020 02:06:47 +0100 in /rds/user/bz240/hpc-work/airss-fw/launch_tmp/launcher_2020-07-24-00-57-50-325213
REM CASTEP 19.11| from code version Version unavailable
REM Functional Perdew Burke Ernzerhof Relativity Koelling-Harmon Dispersion off
REM Cut-off 300.0000 eV Grid scale 1.7500 Gmax 15.5288 1/A FBSC none
REM MP grid 3 3 3 Offset 0.000 0.000 0.000 No. kpts 6 Spacing 0.07
REM Total runtime: 564.41 s
REM Overall efficiency: 85.3333 %
REM
REM 2Ag2Se.cell (28ba953ba57c5a31f5193472e679a60a)
REM
REM compiler GCC version 4.8.5 20150623 (Red Hat 4.8.5-39)
REM options -cpp -mtune=generic -march=x86-64 -g -Og
REM COMMAND_LINE
REM seed -60307615 -561508481 1712011765 1014189937 -1985335737 1316826971 -2058096051 -1669481543 -1917929320 319287945 268836780 -1835293300
REM
REM Se 3|2.1|7|7|9|40:41:32(qc=5)
REM Ag 3|2.2|7|7|9|40U:50:41:42(qc=5)
REM 
CELL 1.54180    5.06826    5.06826    5.06826   89.90311   89.90311   89.90311
LATT -1
SFAC Se Ag 
Se     1  0.2027610851422  0.2027610851422  0.2027610851422 1.0
Se     1 -0.3814163337968 -0.3814163337968 -0.3814163337968 1.0
Ag     2  0.1139144025642 -0.2920214684964  0.4104555592028 1.0
Ag     2  0.4104555592028  0.1139144025642 -0.2920214684964 1.0
Ag     2 -0.2920214684964  0.4104555592028  0.1139144025642 1.0
Ag     2 -0.0895545446162 -0.0895545446162 -0.0895545446162 1.0
END
