TITL 2Ag2Se-200724-024357-a166f4 0.0331 114.262776 -2.30658720E+004 0 0 6 (Fmmm) n - 1
REM
REM Run started: Fri, 24 Jul 2020 02:50:51 +0100 in /rds/user/bz240/hpc-work/airss-fw/launch_tmp/launcher_2020-07-24-01-43-55-898638
REM CASTEP 19.11| from code version Version unavailable
REM Functional Perdew Burke Ernzerhof Relativity Koelling-Harmon Dispersion off
REM Cut-off 300.0000 eV Grid scale 1.7500 Gmax 15.5288 1/A FBSC none
REM MP grid 3 4 4 Offset 0.000 0.000 0.000 No. kpts 12 Spacing 0.07
REM Total runtime: 472.08 s
REM Overall efficiency: 85 %
REM
REM 2Ag2Se.cell (28ba953ba57c5a31f5193472e679a60a)
REM
REM compiler GCC version 4.8.5 20150623 (Red Hat 4.8.5-39)
REM options -cpp -mtune=generic -march=x86-64 -g -Og
REM COMMAND_LINE
REM seed 1764744500 1424734165 1656237641 285956689 -398480952 1588134081 834019625 -1943890596 652237890 -1764891362 -805520525 -145054050
REM
REM Se 3|2.1|7|7|9|40:41:32(qc=5)
REM Ag 3|2.2|7|7|9|40U:50:41:42(qc=5)
REM 
CELL 1.54180    5.12887    4.96564    4.96564  115.37694   90.00000   90.00000
LATT -1
SFAC Se Ag 
Se     1  0.0561720000000 -0.0000000000000 -0.5000000000000 1.0
Se     1 -0.4438280000000  0.5000000000000  0.0000000000000 1.0
Ag     2  0.0561720000000  0.3312858508131  0.1687141491869 1.0
Ag     2  0.0561720000000 -0.3312858508131 -0.1687141491869 1.0
Ag     2 -0.4438280000000  0.1687141491869  0.3312858508131 1.0
Ag     2 -0.4438280000000 -0.1687141491869 -0.3312858508131 1.0
END
