TITL 2Ag2Se-200724-014554-13c6a1 0.0172 128.669266 -2.30657994E+004 0 0 6 (P4/mmm) n - 1
REM
REM Run started: Fri, 24 Jul 2020 01:54:51 +0100 in /scratch/scratch/uccabz1/launch_tmp/launcher_2020-07-24-00-45-53-372324
REM CASTEP 19.11| from code version Version unavailable
REM Functional Perdew Burke Ernzerhof Relativity Koelling-Harmon Dispersion off
REM Cut-off 300.0000 eV Grid scale 1.7500 Gmax 15.5288 1/A FBSC none
REM MP grid 4 4 4 Offset 0.000 0.000 0.000 No. kpts 20 Spacing 0.07
REM Total runtime: 634.03 s
REM Overall efficiency: 88.8 %
REM
REM 2Ag2Se.cell (28ba953ba57c5a31f5193472e679a60a)
REM
REM compiler GCC version 4.9.2
REM options -cpp -iprefix /scratch/UCL/applications/gcc/4.9.2/bin/../lib/gcc/x86_64-unknown-linux-gnu/4.9.2/ -mtune=corei7 -march=x86-64 -g -O2
REM COMMAND_LINE
REM seed -285854013 -1367205456 1527646354 -734018779 -632612543 -1081957136 1247905417 -1645822310 -1631027687 -1798121304 -1958571032 190083418
REM
REM Se 3|2.1|7|7|9|40:41:32(qc=5)
REM Ag 3|2.2|7|7|9|40U:50:41:42(qc=5)
REM 
CELL 1.54180    5.87071    5.59212    5.59212   62.67890   58.33787   58.33787
LATT -1
SFAC Se Ag 
Se     1  0.2500000000000 -0.2500000000000 -0.2500000000000 1.0
Se     1 -0.2500000000000  0.2500000000000  0.2500000000000 1.0
Ag     2 -0.2501802927459 -0.2498197072541  0.2501802927459 1.0
Ag     2 -0.2498197072541  0.2498197072541 -0.2501802927459 1.0
Ag     2  0.2498197072541  0.2501802927459 -0.2498197072541 1.0
Ag     2  0.2501802927459 -0.2501802927459  0.2498197072541 1.0
END
