TITL 2Ag2Se-200724-022803-3fd3dc -0.0380 130.557551 -2.30663724E+004 0 0 6 (P21212) n - 1
REM
REM Run started: Fri, 24 Jul 2020 02:36:46 +0100 in /rds/user/bz240/hpc-work/airss-fw/launch_tmp/launcher_2020-07-24-01-28-01-470590
REM CASTEP 19.11| from code version Version unavailable
REM Functional Perdew Burke Ernzerhof Relativity Koelling-Harmon Dispersion off
REM Cut-off 300.0000 eV Grid scale 1.7500 Gmax 15.5288 1/A FBSC none
REM MP grid 4 3 3 Offset 0.000 0.000 0.000 No. kpts 8 Spacing 0.07
REM Total runtime: 583.46 s
REM Overall efficiency: 87 %
REM
REM 2Ag2Se.cell (28ba953ba57c5a31f5193472e679a60a)
REM
REM compiler GCC version 4.8.5 20150623 (Red Hat 4.8.5-39)
REM options -cpp -mtune=generic -march=x86-64 -g -Og
REM COMMAND_LINE
REM seed 357024747 862063828 -541441206 2015142647 331793193 1936888313 -31489427 1476700594 -354227784 1825569772 -2047681174 -235477730
REM
REM Se 3|2.1|7|7|9|40:41:32(qc=5)
REM Ag 3|2.2|7|7|9|40U:50:41:42(qc=5)
REM 
CELL 1.54180    4.29728    5.38122    5.64583   90.00000   90.00000   90.00000
LATT -1
SFAC Se Ag 
Se     1  0.3756932812427 -0.0000000000000  0.0000000000000 1.0
Se     1 -0.3756932812427 -0.5000000000000  0.5000000000000 1.0
Ag     2  0.0850536981050 -0.2262948061971 -0.3392309405181 1.0
Ag     2  0.0850536981050  0.2262948061971  0.3392309405181 1.0
Ag     2 -0.0850536981050  0.2737051938029 -0.1607690594819 1.0
Ag     2 -0.0850536981050 -0.2737051938029  0.1607690594819 1.0
END
