TITL 2Ag2Se-200724-020809-6fc0ea 0.0366 113.714858 -2.30663091E+004 0 0 6 (P-1) n - 1
REM
REM Run started: Fri, 24 Jul 2020 02:29:35 +0100 in /scratch/scratch/uccabz1/launch_tmp/launcher_2020-07-24-01-08-07-651260
REM CASTEP 19.11| from code version Version unavailable
REM Functional Perdew Burke Ernzerhof Relativity Koelling-Harmon Dispersion off
REM Cut-off 300.0000 eV Grid scale 1.7500 Gmax 15.5288 1/A FBSC none
REM MP grid 4 4 3 Offset 0.000 0.000 0.000 No. kpts 24 Spacing 0.07
REM Total runtime: 1434.53 s
REM Overall efficiency: 89.8571 %
REM
REM 2Ag2Se.cell (28ba953ba57c5a31f5193472e679a60a)
REM
REM compiler GCC version 4.9.2
REM options -cpp -iprefix /scratch/UCL/applications/gcc/4.9.2/bin/../lib/gcc/x86_64-unknown-linux-gnu/4.9.2/ -mtune=corei7 -march=x86-64 -g -O2
REM COMMAND_LINE
REM seed -513205705 -1256556672 318656130 926450258 1335024620 -624905018 382014057 1620206027 -1418982139 -749874522 -1139259508 1954286344
REM
REM Se 3|2.1|7|7|9|40:41:32(qc=5)
REM Ag 3|2.2|7|7|9|40U:50:41:42(qc=5)
REM 
CELL 1.54180    4.03287    4.21530    6.86079   89.79361  102.81773   90.77351
LATT -1
SFAC Se Ag 
Se     1 -0.3715568898753  0.2500937924599  0.2102264574292 1.0
Se     1  0.3715568898753 -0.2500937924599 -0.2102264574292 1.0
Ag     2 -0.2511605365859 -0.2501796627764  0.4868316572961 1.0
Ag     2  0.2511605365859  0.2501796627764 -0.4868316572961 1.0
Ag     2 -0.1057434484755  0.2495384237456 -0.1526912113453 1.0
Ag     2  0.1057434484755 -0.2495384237456  0.1526912113453 1.0
END
