TITL 2Ag2Se-200724-013654-ef10e4 0.0282 129.908534 -2.30663372E+004 0 0 6 (R32) n - 1
REM
REM Run started: Fri, 24 Jul 2020 02:00:10 +0100 in /rds/user/bz240/hpc-work/airss-fw/launch_tmp/launcher_2020-07-24-00-36-53-130511
REM CASTEP 19.11| from code version Version unavailable
REM Functional Perdew Burke Ernzerhof Relativity Koelling-Harmon Dispersion off
REM Cut-off 300.0000 eV Grid scale 1.7500 Gmax 15.5288 1/A FBSC none
REM MP grid 3 3 3 Offset 0.000 0.000 0.000 No. kpts 6 Spacing 0.07
REM Total runtime: 1442.43 s
REM Overall efficiency: 86.5556 %
REM
REM 2Ag2Se.cell (28ba953ba57c5a31f5193472e679a60a)
REM
REM compiler GCC version 4.8.5 20150623 (Red Hat 4.8.5-39)
REM options -cpp -mtune=generic -march=x86-64 -g -Og
REM COMMAND_LINE
REM seed 248113469 -327738411 -1592409066 -1266963836 -1585900984 -1772557733 -84095471 -828311988 162915023 17939242 -1674658075 1496360819
REM
REM Se 3|2.1|7|7|9|40:41:32(qc=5)
REM Ag 3|2.2|7|7|9|40U:50:41:42(qc=5)
REM 
CELL 1.54180    5.06461    5.06461    5.06461   89.97748   89.97748   89.97748
LATT -1
SFAC Se Ag 
Se     1  0.2161057105373  0.2161057105373  0.2161057105373 1.0
Se     1 -0.1986724881721 -0.1986724881721 -0.1986724881721 1.0
Ag     2  0.3064050577339 -0.2876940788888  0.0088834442691 1.0
Ag     2  0.0088834442691  0.3064050577339 -0.2876940788888 1.0
Ag     2 -0.2876940788888  0.0088834442691  0.3064050577339 1.0
Ag     2 -0.4911866454795 -0.4911866454795 -0.4911866454795 1.0
END
