TITL 2Ag2Se-200724-010245-d256ff 0.0294 130.477620 -2.30663453E+004 0 0 6 (R32) n - 1
REM
REM Run started: Fri, 24 Jul 2020 01:16:50 +0100 in /rds/user/bz240/hpc-work/airss-fw/launch_tmp/launcher_2020-07-24-00-02-43-275349
REM CASTEP 19.11| from code version Version unavailable
REM Functional Perdew Burke Ernzerhof Relativity Koelling-Harmon Dispersion off
REM Cut-off 300.0000 eV Grid scale 1.7500 Gmax 15.5288 1/A FBSC none
REM MP grid 3 3 3 Offset 0.000 0.000 0.000 No. kpts 6 Spacing 0.07
REM Total runtime: 946.24 s
REM Overall efficiency: 88.5714 %
REM
REM 2Ag2Se.cell (28ba953ba57c5a31f5193472e679a60a)
REM
REM compiler GCC version 4.8.5 20150623 (Red Hat 4.8.5-39)
REM options -cpp -mtune=generic -march=x86-64 -g -Og
REM COMMAND_LINE
REM seed -58795317 -1619754403 -440999625 -909194451 -2000568601 -392580638 -1987941689 1896147043 55190414 419463724 -1978279333 10691571
REM
REM Se 3|2.1|7|7|9|40:41:32(qc=5)
REM Ag 3|2.2|7|7|9|40U:50:41:42(qc=5)
REM 
CELL 1.54180    5.07203    5.07203    5.07203   90.21457   90.21457   90.21457
LATT -1
SFAC Se Ag 
Se     1  0.3651335711944  0.3651335711944  0.3651335711944 1.0
Se     1 -0.2220175316140 -0.2220175316140 -0.2220175316140 1.0
Ag     2 -0.1300886275394  0.2714305852681 -0.4301515541890 1.0
Ag     2 -0.4301515541890 -0.1300886275394  0.2714305852681 1.0
Ag     2  0.2714305852681 -0.4301515541890 -0.1300886275394 1.0
Ag     2  0.0717474568799  0.0717474568799  0.0717474568799 1.0
END
