TITL 2Ag2Se-200724-011453-4a74b1 0.0073 126.602882 -2.30662741E+004 0 0 6 (P21) n - 1
REM
REM Run started: Fri, 24 Jul 2020 01:24:52 +0100 in /rds/user/bz240/hpc-work/airss-fw/launch_tmp/launcher_2020-07-24-00-14-52-241155
REM CASTEP 19.11| from code version Version unavailable
REM Functional Perdew Burke Ernzerhof Relativity Koelling-Harmon Dispersion off
REM Cut-off 300.0000 eV Grid scale 1.7500 Gmax 15.5288 1/A FBSC none
REM MP grid 4 3 3 Offset 0.000 0.000 0.000 No. kpts 12 Spacing 0.07
REM Total runtime: 574.87 s
REM Overall efficiency: 88.4 %
REM
REM 2Ag2Se.cell (28ba953ba57c5a31f5193472e679a60a)
REM
REM compiler GCC version 4.8.5 20150623 (Red Hat 4.8.5-39)
REM options -cpp -mtune=generic -march=x86-64 -g -Og
REM COMMAND_LINE
REM seed -903576655 183923060 1219564173 628066635 1774019002 1620489656 1916498088 1987837476 -1833457548 -1410278987 1330314514 203754758
REM
REM Se 3|2.1|7|7|9|40:41:32(qc=5)
REM Ag 3|2.2|7|7|9|40U:50:41:42(qc=5)
REM 
CELL 1.54180    4.42272    5.23514    5.47074   90.00000   90.00000   91.82852
LATT -1
SFAC Se Ag 
Se     1  0.2579069709474  0.2038024909649 -0.1975251136088 1.0
Se     1 -0.2579069709474 -0.2038024909649  0.3024748863912 1.0
Ag     2 -0.2319493570286  0.3768099812042  0.0428616164926 1.0
Ag     2  0.2319493570286 -0.3768099812042 -0.4571383835074 1.0
Ag     2  0.2552932535241  0.1328499082568  0.3038385971162 1.0
Ag     2 -0.2552932535241 -0.1328499082568 -0.1961614028838 1.0
END
