TITL 2Ag2Se-200724-012152-550504 -0.0582 115.953874 -2.30663353E+004 0 0 6 (P-1) n - 1
REM
REM Run started: Fri, 24 Jul 2020 02:09:25 +0100 in /rds/user/bz240/hpc-work/airss-fw/launch_tmp/launcher_2020-07-24-00-21-50-544296
REM CASTEP 19.11| from code version Version unavailable
REM Functional Perdew Burke Ernzerhof Relativity Koelling-Harmon Dispersion off
REM Cut-off 300.0000 eV Grid scale 1.7500 Gmax 15.5288 1/A FBSC none
REM MP grid 4 4 3 Offset 0.000 0.000 0.000 No. kpts 24 Spacing 0.07
REM Total runtime: 2895.15 s
REM Overall efficiency: 92.4 %
REM
REM 2Ag2Se.cell (28ba953ba57c5a31f5193472e679a60a)
REM
REM compiler GCC version 4.8.5 20150623 (Red Hat 4.8.5-39)
REM options -cpp -mtune=generic -march=x86-64 -g -Og
REM COMMAND_LINE
REM seed -1211308971 -2136559912 -570302827 -1192698125 -209533642 -150374158 -1867841853 -1776922600 -1854937018 -1896445997 1315944896 -533657659
REM
REM Se 3|2.1|7|7|9|40:41:32(qc=5)
REM Ag 3|2.2|7|7|9|40U:50:41:42(qc=5)
REM 
CELL 1.54180    4.15902    4.16152    6.74932   91.67316   83.23995   90.42760
LATT -1
SFAC Se Ag 
Se     1 -0.2025508973557 -0.2602091131856  0.2136316123301 1.0
Se     1  0.2025508973557  0.2602091131856 -0.2136316123301 1.0
Ag     2 -0.3247739274518 -0.2276563804804 -0.1754038715149 1.0
Ag     2  0.3247739274518  0.2276563804804  0.1754038715149 1.0
Ag     2  0.2503831279700 -0.2510438125607 -0.4990199843670 1.0
Ag     2 -0.2503831279700  0.2510438125607  0.4990199843670 1.0
END
