TITL 2Ag2Se-200724-011518-cc9fc0 0.0095 130.770672 -2.30661666E+004 0 0 6 (Pc) n - 1
REM
REM Run started: Fri, 24 Jul 2020 01:26:46 +0100 in /rds/user/bz240/hpc-work/airss-fw/launch_tmp/launcher_2020-07-24-00-15-16-223881
REM CASTEP 19.11| from code version Version unavailable
REM Functional Perdew Burke Ernzerhof Relativity Koelling-Harmon Dispersion off
REM Cut-off 300.0000 eV Grid scale 1.7500 Gmax 15.5288 1/A FBSC none
REM MP grid 3 3 3 Offset 0.000 0.000 0.000 No. kpts 10 Spacing 0.07
REM Total runtime: 724.53 s
REM Overall efficiency: 72.8333 %
REM
REM 2Ag2Se.cell (28ba953ba57c5a31f5193472e679a60a)
REM
REM compiler GCC version 4.8.5 20150623 (Red Hat 4.8.5-39)
REM options -cpp -mtune=generic -march=x86-64 -g -Og
REM COMMAND_LINE
REM seed -1038321776 2085947387 -514826272 1497648018 -1777205725 -498802853 1111859025 804113972 2038231730 1189492119 612632622 -352227245
REM
REM Se 3|2.1|7|7|9|40:41:32(qc=5)
REM Ag 3|2.2|7|7|9|40U:50:41:42(qc=5)
REM 
CELL 1.54180    5.00027    4.84054    5.45437   90.00000   90.00000   97.88067
LATT -1
SFAC Se Ag 
Se     1 -0.2801380691865  0.4835190465014  0.2551735640136 1.0
Se     1  0.2198619308135 -0.0164809534986 -0.2551735640136 1.0
Ag     2  0.4198307893425 -0.4757379233614 -0.1421533529103 1.0
Ag     2 -0.0801692106575  0.0242620766386  0.1421533529103 1.0
Ag     2 -0.2542593201560  0.1381810768600 -0.3597273516268 1.0
Ag     2  0.2457406798440 -0.3618189231400  0.3597273516268 1.0
END
