TITL 2Ag2Se-200724-010245-5368ee -0.0390 130.133360 -2.30663403E+004 0 0 6 (R32) n - 1
REM
REM Run started: Fri, 24 Jul 2020 01:08:53 +0100 in /rds/user/bz240/hpc-work/airss-fw/launch_tmp/launcher_2020-07-24-00-02-43-276456
REM CASTEP 19.11| from code version Version unavailable
REM Functional Perdew Burke Ernzerhof Relativity Koelling-Harmon Dispersion off
REM Cut-off 300.0000 eV Grid scale 1.7500 Gmax 15.5288 1/A FBSC none
REM MP grid 3 3 3 Offset 0.000 0.000 0.000 No. kpts 6 Spacing 0.07
REM Total runtime: 432.67 s
REM Overall efficiency: 87.6 %
REM
REM 2Ag2Se.cell (28ba953ba57c5a31f5193472e679a60a)
REM
REM compiler GCC version 4.8.5 20150623 (Red Hat 4.8.5-39)
REM options -cpp -mtune=generic -march=x86-64 -g -Og
REM COMMAND_LINE
REM seed -2142763244 1116843843 -1294886987 1508674142 406278638 157339974 1379465389 -86305276 -424089877 1650467037 29865558 1158354025
REM
REM Se 3|2.1|7|7|9|40:41:32(qc=5)
REM Ag 3|2.2|7|7|9|40U:50:41:42(qc=5)
REM 
CELL 1.54180    5.06753    5.06753    5.06753   90.00339   90.00339   90.00339
LATT -1
SFAC Se Ag 
Se     1 -0.3042557426030 -0.3042557426030 -0.3042557426030 1.0
Se     1  0.2804488437798  0.2804488437798  0.2804488437798 1.0
Ag     2  0.4867986356858 -0.2167684397740  0.1908570944819 1.0
Ag     2  0.1908570944819  0.4867986356858 -0.2167684397740 1.0
Ag     2 -0.2167684397740  0.1908570944819  0.4867986356858 1.0
Ag     2 -0.0117670915706 -0.0117670915706 -0.0117670915706 1.0
END
