TITL 2Ag2Se-200724-015648-83d4c7 -0.0027 125.511207 -2.30662224E+004 0 0 6 (C2/c) n - 1
REM
REM Run started: Fri, 24 Jul 2020 02:20:30 +0100 in /rds/user/bz240/hpc-work/airss-fw/launch_tmp/launcher_2020-07-24-00-56-46-267849
REM CASTEP 19.11| from code version Version unavailable
REM Functional Perdew Burke Ernzerhof Relativity Koelling-Harmon Dispersion off
REM Cut-off 300.0000 eV Grid scale 1.7500 Gmax 15.5288 1/A FBSC none
REM MP grid 4 4 3 Offset 0.000 0.000 0.000 No. kpts 24 Spacing 0.07
REM Total runtime: 1796.5 s
REM Overall efficiency: 93 %
REM
REM 2Ag2Se.cell (28ba953ba57c5a31f5193472e679a60a)
REM
REM compiler GCC version 4.8.5 20150623 (Red Hat 4.8.5-39)
REM options -cpp -mtune=generic -march=x86-64 -g -Og
REM COMMAND_LINE
REM seed -1189994979 -281250772 -1959027702 -1012284664 -1614232319 -352058759 1968529477 1462789143 -194917701 -153921929 1693562667 -705079302
REM
REM Se 3|2.1|7|7|9|40:41:32(qc=5)
REM Ag 3|2.2|7|7|9|40U:50:41:42(qc=5)
REM 
CELL 1.54180    4.65262    4.65262    7.22024   88.72949  110.60500  119.22707
LATT -1
SFAC Se Ag 
Se     1 -0.4712125634308  0.2197497094106 -0.0880797589947 1.0
Se     1 -0.3078294684052 -0.1168671955638  0.4119202410053 1.0
Ag     2 -0.0391283368513 -0.4705805932972  0.3059652060841 1.0
Ag     2 -0.2234542006186 -0.1549064570645 -0.1940347939159 1.0
Ag     2  0.2534934138238 -0.4263635525718  0.0071008529105 1.0
Ag     2  0.4334644054823  0.2536074390868  0.5071008529105 1.0
END
