TITL 2Ag2Se-200724-011123-372345 -0.0365 124.094472 -2.30660217E+004 0 0 6 (C2) n - 1
REM
REM Run started: Fri, 24 Jul 2020 01:21:41 +0100 in /rds/user/bz240/hpc-work/airss-fw/launch_tmp/launcher_2020-07-24-00-11-21-638199
REM CASTEP 19.11| from code version Version unavailable
REM Functional Perdew Burke Ernzerhof Relativity Koelling-Harmon Dispersion off
REM Cut-off 300.0000 eV Grid scale 1.7500 Gmax 15.5288 1/A FBSC none
REM MP grid 4 3 3 Offset 0.000 0.000 0.000 No. kpts 12 Spacing 0.07
REM Total runtime: 686.55 s
REM Overall efficiency: 89.4 %
REM
REM 2Ag2Se.cell (28ba953ba57c5a31f5193472e679a60a)
REM
REM compiler GCC version 4.8.5 20150623 (Red Hat 4.8.5-39)
REM options -cpp -mtune=generic -march=x86-64 -g -Og
REM COMMAND_LINE
REM seed 286334320 1973196560 -1588905797 -1114138557 -1382109138 1493744509 -1249957855 1109094897 160880729 -706215694 2078468912 -610046817
REM
REM Se 3|2.1|7|7|9|40:41:32(qc=5)
REM Ag 3|2.2|7|7|9|40U:50:41:42(qc=5)
REM 
CELL 1.54180    4.36176    5.64602    5.64602   63.22640   88.74058   88.74058
LATT -1
SFAC Se Ag 
Se     1  0.2436776541617  0.1713765794415  0.1787251877996 1.0
Se     1 -0.2436776541617 -0.1787251877996 -0.1713765794415 1.0
Ag     2  0.2549450088782 -0.3249622985202  0.1320158997909 1.0
Ag     2 -0.2549450088782 -0.1320158997909  0.3249622985202 1.0
Ag     2 -0.2454537826454  0.3207512940865  0.4623285874174 1.0
Ag     2  0.2454537826454 -0.4623285874174 -0.3207512940865 1.0
END
