TITL 2Ag2Se-200724-012522-1ff618 0.0182 121.341581 -2.30659298E+004 0 0 6 (Cmcm) n - 1
REM
REM Run started: Fri, 24 Jul 2020 01:33:36 +0100 in /rds/user/bz240/hpc-work/airss-fw/launch_tmp/launcher_2020-07-24-00-25-20-210891
REM CASTEP 19.11| from code version Version unavailable
REM Functional Perdew Burke Ernzerhof Relativity Koelling-Harmon Dispersion off
REM Cut-off 300.0000 eV Grid scale 1.7500 Gmax 15.5288 1/A FBSC none
REM MP grid 4 3 3 Offset 0.000 0.000 0.000 No. kpts 12 Spacing 0.07
REM Total runtime: 579.65 s
REM Overall efficiency: 89.2 %
REM
REM 2Ag2Se.cell (28ba953ba57c5a31f5193472e679a60a)
REM
REM compiler GCC version 4.8.5 20150623 (Red Hat 4.8.5-39)
REM options -cpp -mtune=generic -march=x86-64 -g -Og
REM COMMAND_LINE
REM seed 1145711313 -115014873 -1338001794 1888462896 1219288783 1531605353 -843178300 -660805249 808153966 1503220751 -252941728 1383823440
REM
REM Se 3|2.1|7|7|9|40:41:32(qc=5)
REM Ag 3|2.2|7|7|9|40U:50:41:42(qc=5)
REM 
CELL 1.54180    4.68413    5.16021    5.16021  103.38190   90.01975   90.01975
LATT -1
SFAC Se Ag 
Se     1  0.2493619551971 -0.3093888993592 -0.2116550993592 1.0
Se     1 -0.2493619551971  0.2116550993592  0.3093888993592 1.0
Ag     2 -0.2501329914000 -0.3675206934905  0.0867098426723 1.0
Ag     2  0.2501329914000 -0.0867098426723  0.3675206934905 1.0
Ag     2 -0.2501329914000 -0.0110239573277 -0.2697868934905 1.0
Ag     2  0.2501329914000  0.2697868934905  0.0110239573277 1.0
END
