TITL 2Ag2Se-200724-020205-b81c7a -0.0086 127.914513 -2.30663098E+004 0 0 6 (P2/c) n - 1
REM
REM Run started: Fri, 24 Jul 2020 02:10:16 +0100 in /rds/user/bz240/hpc-work/airss-fw/launch_tmp/launcher_2020-07-24-01-02-03-829375
REM CASTEP 19.11| from code version Version unavailable
REM Functional Perdew Burke Ernzerhof Relativity Koelling-Harmon Dispersion off
REM Cut-off 300.0000 eV Grid scale 1.7500 Gmax 15.5288 1/A FBSC none
REM MP grid 4 4 3 Offset 0.000 0.000 0.000 No. kpts 12 Spacing 0.07
REM Total runtime: 671.72 s
REM Overall efficiency: 75.8 %
REM
REM 2Ag2Se.cell (28ba953ba57c5a31f5193472e679a60a)
REM
REM compiler GCC version 4.8.5 20150623 (Red Hat 4.8.5-39)
REM options -cpp -mtune=generic -march=x86-64 -g -Og
REM COMMAND_LINE
REM seed -837674246 -888976074 -1474185997 681740875 -687251013 1617587423 200340279 1247015862 -964866093 672297408 1276011315 -1174682921
REM
REM Se 3|2.1|7|7|9|40:41:32(qc=5)
REM Ag 3|2.2|7|7|9|40U:50:41:42(qc=5)
REM 
CELL 1.54180    4.54187    4.61366    6.10487   90.74747   90.00000   90.00000
LATT -1
SFAC Se Ag 
Se     1 -0.3105816246656 -0.2500000000000  0.2500000000000 1.0
Se     1  0.3105816246656  0.2500000000000 -0.2500000000000 1.0
Ag     2  0.1892913862753 -0.2488300625975 -0.0103307797480 1.0
Ag     2  0.1892913862753 -0.2511699374025 -0.4896692202520 1.0
Ag     2 -0.1892913862753  0.2488300625975  0.0103307797480 1.0
Ag     2 -0.1892913862753  0.2511699374025  0.4896692202520 1.0
END
