TITL 2Ag2Se-200724-030835-4b03bf -0.0169 122.337418 -2.30663926E+004 0 0 6 (Cmc21) n - 1
REM
REM Run started: Fri, 24 Jul 2020 03:20:37 +0100 in /rds/user/bz240/hpc-work/airss-fw/launch_tmp/launcher_2020-07-24-02-08-33-788260
REM CASTEP 19.11| from code version Version unavailable
REM Functional Perdew Burke Ernzerhof Relativity Koelling-Harmon Dispersion off
REM Cut-off 300.0000 eV Grid scale 1.7500 Gmax 15.5288 1/A FBSC none
REM MP grid 4 4 2 Offset 0.000 0.000 0.000 No. kpts 10 Spacing 0.07
REM Total runtime: 768.31 s
REM Overall efficiency: 66.3333 %
REM
REM 2Ag2Se.cell (28ba953ba57c5a31f5193472e679a60a)
REM
REM compiler GCC version 4.8.5 20150623 (Red Hat 4.8.5-39)
REM options -cpp -mtune=generic -march=x86-64 -g -Og
REM COMMAND_LINE
REM seed -344404097 -282245095 980171901 -1653236523 -561859039 1330771877 1902772059 -999012755 1136948757 -465647626 -1015380804 1469599071
REM
REM Se 3|2.1|7|7|9|40:41:32(qc=5)
REM Ag 3|2.2|7|7|9|40U:50:41:42(qc=5)
REM 
CELL 1.54180    4.23128    4.23128    7.20084   90.30183   90.30183  108.38388
LATT -1
SFAC Se Ag 
Se     1  0.0304981786948  0.0892735035987  0.1856326147056 1.0
Se     1 -0.4107264964013 -0.4695018213052 -0.3143673852944 1.0
Ag     2 -0.3543033284027  0.4797985281551  0.3000737721081 1.0
Ag     2 -0.0202014718449  0.1456966715973 -0.1999262278919 1.0
Ag     2  0.3617046338011 -0.2334783158471 -0.0087895868137 1.0
Ag     2  0.2665216841529 -0.1382953661989 -0.5087895868137 1.0
END
