TITL 2Ag2Se-200724-012201-949104 -0.0340 116.991411 -2.30660427E+004 0 0 6 (Cmcm) n - 1
REM
REM Run started: Fri, 24 Jul 2020 01:36:12 +0100 in /scratch/scratch/uccabz1/launch_tmp/launcher_2020-07-24-00-21-59-823554
REM CASTEP 19.11| from code version Version unavailable
REM Functional Perdew Burke Ernzerhof Relativity Koelling-Harmon Dispersion off
REM Cut-off 300.0000 eV Grid scale 1.7500 Gmax 15.5288 1/A FBSC none
REM MP grid 5 3 3 Offset 0.000 0.000 0.000 No. kpts 16 Spacing 0.07
REM Total runtime: 959.35 s
REM Overall efficiency: 87.6667 %
REM
REM 2Ag2Se.cell (28ba953ba57c5a31f5193472e679a60a)
REM
REM compiler GCC version 4.9.2
REM options -cpp -iprefix /scratch/UCL/applications/gcc/4.9.2/bin/../lib/gcc/x86_64-unknown-linux-gnu/4.9.2/ -mtune=corei7 -march=x86-64 -g -O2
REM COMMAND_LINE
REM seed 130942028 1835988117 2022300691 -917483837 -1385052401 -667780568 43805921 -225681126 -1535006540 -1408851166 -1222739621 2043358226
REM
REM Se 3|2.1|7|7|9|40:41:32(qc=5)
REM Ag 3|2.2|7|7|9|40U:50:41:42(qc=5)
REM 
CELL 1.54180    3.70941    5.65314    5.89003   90.00000  108.70186   90.00000
LATT -1
SFAC Se Ag 
Se     1  0.3529153934921 -0.1443317552002 -0.2861526760507 1.0
Se     1 -0.3529153934921  0.3556682447998  0.2861526760507 1.0
Ag     2 -0.3305359959020 -0.1436427940528  0.3374886959997 1.0
Ag     2  0.3305359959020  0.3563572059472 -0.3374886959997 1.0
Ag     2 -0.0002650739814  0.1066881492530 -0.0006197975092 1.0
Ag     2  0.0002650739814 -0.3933118507470  0.0006197975092 1.0
END
