TITL 2Ag2Se-200724-022421-19c5ad -0.0317 129.720229 -2.30663325E+004 0 0 6 (R32) n - 1
REM
REM Run started: Fri, 24 Jul 2020 02:29:32 +0100 in /scratch/scratch/uccabz1/launch_tmp/launcher_2020-07-24-01-24-18-954323
REM CASTEP 19.11| from code version Version unavailable
REM Functional Perdew Burke Ernzerhof Relativity Koelling-Harmon Dispersion off
REM Cut-off 300.0000 eV Grid scale 1.7500 Gmax 15.5288 1/A FBSC none
REM MP grid 3 3 3 Offset 0.000 0.000 0.000 No. kpts 6 Spacing 0.07
REM Total runtime: 358.74 s
REM Overall efficiency: 76 %
REM
REM 2Ag2Se.cell (28ba953ba57c5a31f5193472e679a60a)
REM
REM compiler GCC version 4.9.2
REM options -cpp -iprefix /scratch/UCL/applications/gcc/4.9.2/bin/../lib/gcc/x86_64-unknown-linux-gnu/4.9.2/ -mtune=corei7 -march=x86-64 -g -O2
REM COMMAND_LINE
REM seed 40766251 -1030763537 817900529 964078237 183598858 -1285865761 115821507 -1957192422 -1682407201 1457284741 -1636308992 197905266
REM
REM Se 3|2.1|7|7|9|40:41:32(qc=5)
REM Ag 3|2.2|7|7|9|40U:50:41:42(qc=5)
REM 
CELL 1.54180    5.06218    5.06218    5.06218   89.83325   89.83325   89.83325
LATT -1
SFAC Se Ag 
Se     1  0.1157500087551  0.1157500087551  0.1157500087551 1.0
Se     1 -0.3012283480344 -0.3012283480344 -0.3012283480344 1.0
Ag     2 -0.0928328814276  0.2035996646855 -0.3891867762812 1.0
Ag     2  0.2035996646855 -0.3891867762812 -0.0928328814276 1.0
Ag     2 -0.3891867762812 -0.0928328814276  0.2035996646855 1.0
Ag     2  0.4072020323025  0.4072020323025  0.4072020323025 1.0
END
