TITL 2Ag2Se-200724-025817-d662fb 0.0095 138.586716 -2.30660186E+004 0 0 6 (P42/m) n - 1
REM
REM Run started: Fri, 24 Jul 2020 03:01:39 +0100 in /scratch/scratch/uccabz1/launch_tmp/launcher_2020-07-24-01-58-14-980677
REM CASTEP 19.11| from code version Version unavailable
REM Functional Perdew Burke Ernzerhof Relativity Koelling-Harmon Dispersion off
REM Cut-off 300.0000 eV Grid scale 1.7500 Gmax 15.5288 1/A FBSC none
REM MP grid 4 3 3 Offset 0.000 0.000 0.000 No. kpts 6 Spacing 0.07
REM Total runtime: 232.45 s
REM Overall efficiency: 75 %
REM
REM 2Ag2Se.cell (28ba953ba57c5a31f5193472e679a60a)
REM
REM compiler GCC version 4.9.2
REM options -cpp -iprefix /scratch/UCL/applications/gcc/4.9.2/bin/../lib/gcc/x86_64-unknown-linux-gnu/4.9.2/ -mtune=corei7 -march=x86-64 -g -O2
REM COMMAND_LINE
REM seed -1374809065 -912143959 -1678091753 1376781594 -1348094190 1236452748 -487777771 -609200830 230438764 50699761 1807982342 1441355558
REM
REM Se 3|2.1|7|7|9|40:41:32(qc=5)
REM Ag 3|2.2|7|7|9|40U:50:41:42(qc=5)
REM 
CELL 1.54180    4.46592    5.57065    5.57065   90.00000   90.00000   90.00000
LATT -1
SFAC Se Ag 
Se     1  0.2218245339318  0.0000000000000  0.5000000000000 1.0
Se     1 -0.2781754660682 -0.5000000000000  0.0000000000000 1.0
Ag     2  0.2229430330341 -0.4016573531231  0.2497265302657 1.0
Ag     2  0.2229430330341  0.4016573531231 -0.2497265302657 1.0
Ag     2 -0.2770569669659  0.2497265302657  0.4016573531231 1.0
Ag     2 -0.2770569669659 -0.2497265302657 -0.4016573531231 1.0
END
