TITL 2Ag2Se-200724-023236-168b7d -0.0039 123.764659 -2.30659888E+004 0 0 6 (Cc) n - 1
REM
REM Run started: Fri, 24 Jul 2020 03:04:58 +0100 in /rds/user/bz240/hpc-work/airss-fw/launch_tmp/launcher_2020-07-24-01-32-34-954997
REM CASTEP 19.11| from code version Version unavailable
REM Functional Perdew Burke Ernzerhof Relativity Koelling-Harmon Dispersion off
REM Cut-off 300.0000 eV Grid scale 1.7500 Gmax 15.5288 1/A FBSC none
REM MP grid 4 3 4 Offset 0.000 0.000 0.000 No. kpts 20 Spacing 0.07
REM Total runtime: 2228.5 s
REM Overall efficiency: 91.6667 %
REM
REM 2Ag2Se.cell (28ba953ba57c5a31f5193472e679a60a)
REM
REM compiler GCC version 4.8.5 20150623 (Red Hat 4.8.5-39)
REM options -cpp -mtune=generic -march=x86-64 -g -Og
REM COMMAND_LINE
REM seed -421174816 -1455161660 -444737251 -894312048 945783827 2006594146 2146547038 -1001527236 -1688185861 315911121 1267424246 430030158
REM
REM Se 3|2.1|7|7|9|40:41:32(qc=5)
REM Ag 3|2.2|7|7|9|40U:50:41:42(qc=5)
REM 
CELL 1.54180    4.29905    6.05237    5.64343   57.57252   88.35476   86.93082
LATT -1
SFAC Se Ag 
Se     1 -0.1775695793243 -0.1190849273990 -0.3504376829560 1.0
Se     1  0.3224304206757 -0.4695226103550  0.3504376829560 1.0
Ag     2 -0.1132820753159  0.2318772550100 -0.2109505177913 1.0
Ag     2  0.3867179246841  0.0209267372187  0.2109505177913 1.0
Ag     2 -0.1602426453599  0.3751807003778  0.1958693447695 1.0
Ag     2  0.3397573546401 -0.4289499548527 -0.1958693447695 1.0
END
