TITL 2Ag2Se-200724-030432-8a8b90 0.0269 114.566435 -2.30659294E+004 0 0 6 (Pc) n - 1
REM
REM Run started: Fri, 24 Jul 2020 03:20:37 +0100 in /scratch/scratch/uccabz1/launch_tmp/launcher_2020-07-24-02-04-30-935761
REM CASTEP 19.11| from code version Version unavailable
REM Functional Perdew Burke Ernzerhof Relativity Koelling-Harmon Dispersion off
REM Cut-off 300.0000 eV Grid scale 1.7500 Gmax 15.5288 1/A FBSC none
REM MP grid 4 5 2 Offset 0.000 0.000 0.000 No. kpts 10 Spacing 0.07
REM Total runtime: 997.02 s
REM Overall efficiency: 84.25 %
REM
REM 2Ag2Se.cell (28ba953ba57c5a31f5193472e679a60a)
REM
REM compiler GCC version 4.9.2
REM options -cpp -iprefix /scratch/UCL/applications/gcc/4.9.2/bin/../lib/gcc/x86_64-unknown-linux-gnu/4.9.2/ -mtune=corei7 -march=x86-64 -g -O2
REM COMMAND_LINE
REM seed 412502764 -1479587557 -1122563784 1590473837 551281465 320125368 2112463224 -1208258267 725394954 317846167 -252147011 241809351
REM
REM Se 3|2.1|7|7|9|40:41:32(qc=5)
REM Ag 3|2.2|7|7|9|40U:50:41:42(qc=5)
REM 
CELL 1.54180    3.68409    3.73748    9.08088  113.61428   90.00000   90.00000
LATT -1
SFAC Se Ag 
Se     1 -0.2306046167804 -0.2459946733891  0.4221307968028 1.0
Se     1  0.2306046167804 -0.2459946733891 -0.0778692031972 1.0
Ag     2 -0.2864238717940  0.4230322060962  0.0896375923641 1.0
Ag     2  0.2864238717940  0.4230322060962 -0.4103624076359 1.0
Ag     2  0.2238785692585  0.0818039672929  0.2530344108331 1.0
Ag     2 -0.2238785692585  0.0818039672929 -0.2469655891669 1.0
END
