TITL 2Ag2Se-200724-023801-de2ea3 0.0400 126.798733 -2.30660284E+004 0 0 6 (Ama2) n - 1
REM
REM Run started: Fri, 24 Jul 2020 02:48:38 +0100 in /scratch/scratch/uccabz1/launch_tmp/launcher_2020-07-24-01-37-59-643233
REM CASTEP 19.11| from code version Version unavailable
REM Functional Perdew Burke Ernzerhof Relativity Koelling-Harmon Dispersion off
REM Cut-off 300.0000 eV Grid scale 1.7500 Gmax 15.5288 1/A FBSC none
REM MP grid 4 4 4 Offset 0.000 0.000 0.000 No. kpts 20 Spacing 0.07
REM Total runtime: 659.55 s
REM Overall efficiency: 81.5 %
REM
REM 2Ag2Se.cell (28ba953ba57c5a31f5193472e679a60a)
REM
REM compiler GCC version 4.9.2
REM options -cpp -iprefix /scratch/UCL/applications/gcc/4.9.2/bin/../lib/gcc/x86_64-unknown-linux-gnu/4.9.2/ -mtune=corei7 -march=x86-64 -g -O2
REM COMMAND_LINE
REM seed 1284790050 524270407 1876774085 1880249223 1569275567 124928309 1925277937 1263154484 -1120354955 2041796284 1808163685 420204257
REM
REM Se 3|2.1|7|7|9|40:41:32(qc=5)
REM Ag 3|2.2|7|7|9|40U:50:41:42(qc=5)
REM 
CELL 1.54180    4.61568    5.78546    5.78546   55.15880   89.93765   89.93765
LATT -1
SFAC Se Ag 
Se     1  0.2518975063951 -0.8076695976909  0.4548125238308 1.0
Se     1 -0.2518975063951  0.5451874761692 -0.1923304023091 1.0
Ag     2 -0.2497757380223  0.0180850715278  0.2432600624998 1.0
Ag     2  0.2497757380223 -0.2432600624998 -0.0180850715278 1.0
Ag     2 -0.2491830286241 -0.5288177107536  0.3530926767528 1.0
Ag     2  0.2491830286241  0.6469073232472 -0.4711822892464 1.0
END
