TITL 2Ag2Se-200724-023249-3da7fe 0.0563 118.712207 -2.30663030E+004 0 0 6 (Cc) n - 1
REM
REM Run started: Fri, 24 Jul 2020 03:12:37 +0100 in /rds/user/bz240/hpc-work/airss-fw/launch_tmp/launcher_2020-07-24-01-32-47-911742
REM CASTEP 19.11| from code version Version unavailable
REM Functional Perdew Burke Ernzerhof Relativity Koelling-Harmon Dispersion off
REM Cut-off 300.0000 eV Grid scale 1.7500 Gmax 15.5288 1/A FBSC none
REM MP grid 4 4 3 Offset 0.000 0.000 0.000 No. kpts 24 Spacing 0.07
REM Total runtime: 2486.3 s
REM Overall efficiency: 93.375 %
REM
REM 2Ag2Se.cell (28ba953ba57c5a31f5193472e679a60a)
REM
REM compiler GCC version 4.8.5 20150623 (Red Hat 4.8.5-39)
REM options -cpp -mtune=generic -march=x86-64 -g -Og
REM COMMAND_LINE
REM seed 479890565 -2143387290 -1238980392 90520402 174018800 -777707436 -809527703 537226707 -1460896148 -895349986 139500712 -1518717050
REM
REM Se 3|2.1|7|7|9|40:41:32(qc=5)
REM Ag 3|2.2|7|7|9|40U:50:41:42(qc=5)
REM 
CELL 1.54180    4.57117    4.84338    6.46184   80.82346   70.24810   61.84242
LATT -1
SFAC Se Ag 
Se     1 -0.3466243938680  0.2475034811737 -0.4547609334190 1.0
Se     1  0.4008791873057 -0.2475036811737  0.0452390665810 1.0
Ag     2 -0.3648192421662  0.1017487724128  0.1498183130860 1.0
Ag     2  0.2369296302465 -0.1017489724128 -0.3501816869140 1.0
Ag     2 -0.0037367573954 -0.4110740667273  0.4176523203330 1.0
Ag     2  0.0851892758773  0.4110738667273 -0.0823476796670 1.0
END
