TITL 2Ag2Se-200724-030704-4d9711 0.0530 132.243168 -2.30662914E+004 0 0 6 (Pc) n - 1
REM
REM Run started: Fri, 24 Jul 2020 04:02:57 +0100 in /rds/user/bz240/hpc-work/airss-fw/launch_tmp/launcher_2020-07-24-02-07-02-919163
REM CASTEP 19.11| from code version Version unavailable
REM Functional Perdew Burke Ernzerhof Relativity Koelling-Harmon Dispersion off
REM Cut-off 300.0000 eV Grid scale 1.7500 Gmax 15.5288 1/A FBSC none
REM MP grid 5 4 3 Offset 0.000 0.000 0.000 No. kpts 20 Spacing 0.07
REM Total runtime: 3446.33 s
REM Overall efficiency: 92.7273 %
REM
REM 2Ag2Se.cell (28ba953ba57c5a31f5193472e679a60a)
REM
REM compiler GCC version 4.8.5 20150623 (Red Hat 4.8.5-39)
REM options -cpp -mtune=generic -march=x86-64 -g -Og
REM COMMAND_LINE
REM seed 1978038560 -1889181659 335085308 -1117182257 759342060 -363909677 -450021395 -2079932208 293187791 458244466 353793664 -785480676
REM
REM Se 3|2.1|7|7|9|40:41:32(qc=5)
REM Ag 3|2.2|7|7|9|40U:50:41:42(qc=5)
REM 
CELL 1.54180    4.43373    5.87239    6.39431   90.00000   90.00000  127.40889
LATT -1
SFAC Se Ag 
Se     1 -0.0268527127586 -0.3887468160798 -0.2365901809704 1.0
Se     1 -0.0268527127586  0.1112531839202  0.2365901809704 1.0
Ag     2 -0.3592630677291 -0.1752044114285 -0.4147015231815 1.0
Ag     2 -0.3592630677291  0.3247955885715  0.4147015231815 1.0
Ag     2  0.5026548804877 -0.3928609724917  0.0522192705040 1.0
Ag     2  0.5026548804877  0.1071390275083 -0.0522192705040 1.0
END
