TITL 2Ag2Se-200724-020920-e5f2ff -0.0191 129.453702 -2.30663287E+004 0 0 6 (R32) n - 1
REM
REM Run started: Fri, 24 Jul 2020 02:24:22 +0100 in /rds/user/bz240/hpc-work/airss-fw/launch_tmp/launcher_2020-07-24-01-09-19-243489
REM CASTEP 19.11| from code version Version unavailable
REM Functional Perdew Burke Ernzerhof Relativity Koelling-Harmon Dispersion off
REM Cut-off 300.0000 eV Grid scale 1.7500 Gmax 15.5288 1/A FBSC none
REM MP grid 3 3 3 Offset 0.000 0.000 0.000 No. kpts 6 Spacing 0.07
REM Total runtime: 1060.06 s
REM Overall efficiency: 88.875 %
REM
REM 2Ag2Se.cell (28ba953ba57c5a31f5193472e679a60a)
REM
REM compiler GCC version 4.8.5 20150623 (Red Hat 4.8.5-39)
REM options -cpp -mtune=generic -march=x86-64 -g -Og
REM COMMAND_LINE
REM seed 1610141905 -1993666437 -445504638 -1690172267 -262401150 279088365 1931400164 -1983695793 1337904488 856575989 325640589 -1818151764
REM
REM Se 3|2.1|7|7|9|40:41:32(qc=5)
REM Ag 3|2.2|7|7|9|40U:50:41:42(qc=5)
REM 
CELL 1.54180    5.05935    5.05935    5.05935   89.06958   89.06958   89.06958
LATT -1
SFAC Se Ag 
Se     1  0.4198599759195  0.4198599759195  0.4198599759195 1.0
Se     1  0.0002349580065  0.0002349580065  0.0002349580065 1.0
Ag     2  0.2114794592159  0.5063020024661 -0.0832500434762 1.0
Ag     2  0.5063020024661 -0.0832500434762  0.2114794592159 1.0
Ag     2 -0.0832500434762  0.2114794592159  0.5063020024661 1.0
Ag     2 -0.2900198521318 -0.2900198521318 -0.2900198521318 1.0
END
