TITL 2Ag2Se-200724-030736-664966 -0.0401 131.261169 -2.30659154E+004 0 0 6 (Fmm2) n - 1
REM
REM Run started: Fri, 24 Jul 2020 03:48:07 +0100 in /rds/user/bz240/hpc-work/airss-fw/launch_tmp/launcher_2020-07-24-02-07-34-398028
REM CASTEP 19.11| from code version Version unavailable
REM Functional Perdew Burke Ernzerhof Relativity Koelling-Harmon Dispersion off
REM Cut-off 300.0000 eV Grid scale 1.7500 Gmax 15.5288 1/A FBSC none
REM MP grid 4 4 3 Offset 0.000 0.000 0.000 No. kpts 22 Spacing 0.07
REM Total runtime: 2503.04 s
REM Overall efficiency: 93.4286 %
REM
REM 2Ag2Se.cell (28ba953ba57c5a31f5193472e679a60a)
REM
REM compiler GCC version 4.8.5 20150623 (Red Hat 4.8.5-39)
REM options -cpp -mtune=generic -march=x86-64 -g -Og
REM COMMAND_LINE
REM seed 216265476 733338133 2088454658 880138363 194659268 475003173 2123521295 866603572 -1036149878 1615317947 1911589602 1841994197
REM
REM Se 3|2.1|7|7|9|40:41:32(qc=5)
REM Ag 3|2.2|7|7|9|40U:50:41:42(qc=5)
REM 
CELL 1.54180    4.50965    4.52043    7.50938  100.01266   99.95327  115.04649
LATT -1
SFAC Se Ag 
Se     1  0.1921243858994 -0.0912959521460 -0.2506355853129 1.0
Se     1  0.4427599712123  0.1593396331669  0.2506355853129 1.0
Ag     2 -0.8033384406278 -0.4516878456994  0.4030474845248 1.0
Ag     2 -0.2063859251526  0.1452646697758 -0.4030474845248 1.0
Ag     2 -0.4362198972074 -0.4260076040904 -0.2110999030836 1.0
Ag     2 -0.2251199941238 -0.2149077010068  0.2110999030836 1.0
END
