TITL 2Ag2Se-200724-025651-7df32c 0.0244 121.954045 -2.30657967E+004 0 0 6 (Ibam) n - 1
REM
REM Run started: Fri, 24 Jul 2020 03:07:25 +0100 in /rds/user/bz240/hpc-work/airss-fw/launch_tmp/launcher_2020-07-24-01-56-49-356294
REM CASTEP 19.11| from code version Version unavailable
REM Functional Perdew Burke Ernzerhof Relativity Koelling-Harmon Dispersion off
REM Cut-off 300.0000 eV Grid scale 1.7500 Gmax 15.5288 1/A FBSC none
REM MP grid 4 4 4 Offset 0.000 0.000 0.000 No. kpts 20 Spacing 0.07
REM Total runtime: 753.09 s
REM Overall efficiency: 92 %
REM
REM 2Ag2Se.cell (28ba953ba57c5a31f5193472e679a60a)
REM
REM compiler GCC version 4.8.5 20150623 (Red Hat 4.8.5-39)
REM options -cpp -mtune=generic -march=x86-64 -g -Og
REM COMMAND_LINE
REM seed 1319243951 -762458277 -966144741 1474438974 -199942110 1414999571 301347740 -252528755 -358366120 284909260 -1278198006 1026434501
REM
REM Se 3|2.1|7|7|9|40:41:32(qc=5)
REM Ag 3|2.2|7|7|9|40U:50:41:42(qc=5)
REM 
CELL 1.54180    5.76617    5.51638    5.51638   60.93088   58.49037   58.49037
LATT -1
SFAC Se Ag 
Se     1 -0.2689832000000 -0.7310168000000  0.2689832000000 1.0
Se     1  0.2310168000000 -0.2310168000000 -0.2310168000000 1.0
Ag     2  0.1654621328769  0.3336614879902 -0.2956950879902 1.0
Ag     2 -0.2034285328769 -0.2956950879902  0.3336614879902 1.0
Ag     2 -0.3345378671231  0.2043049120098 -0.1663385120098 1.0
Ag     2  0.2965714671231 -0.1663385120098  0.2043049120098 1.0
END
