TITL 2Ag2Se-200724-020842-75feec -0.0288 129.901992 -2.30663369E+004 0 0 6 (R32) n - 1
REM
REM Run started: Fri, 24 Jul 2020 02:32:29 +0100 in /rds/user/bz240/hpc-work/airss-fw/launch_tmp/launcher_2020-07-24-01-08-40-367206
REM CASTEP 19.11| from code version Version unavailable
REM Functional Perdew Burke Ernzerhof Relativity Koelling-Harmon Dispersion off
REM Cut-off 300.0000 eV Grid scale 1.7500 Gmax 15.5288 1/A FBSC none
REM MP grid 3 3 3 Offset 0.000 0.000 0.000 No. kpts 6 Spacing 0.07
REM Total runtime: 1467.2 s
REM Overall efficiency: 89.4 %
REM
REM 2Ag2Se.cell (28ba953ba57c5a31f5193472e679a60a)
REM
REM compiler GCC version 4.8.5 20150623 (Red Hat 4.8.5-39)
REM options -cpp -mtune=generic -march=x86-64 -g -Og
REM COMMAND_LINE
REM seed 2094127537 -869530106 -1167709805 231746738 1926708784 -4086673 1628290808 14984995 352642301 -1610247618 1115397095 1116606855
REM
REM Se 3|2.1|7|7|9|40:41:32(qc=5)
REM Ag 3|2.2|7|7|9|40U:50:41:42(qc=5)
REM 
CELL 1.54180    5.06452    5.06452    5.06452   89.98638   89.98638   89.98638
LATT -1
SFAC Se Ag 
Se     1  0.0166035836424  0.0166035836424  0.0166035836424 1.0
Se     1 -0.3979379933262 -0.3979379933262 -0.3979379933262 1.0
Ag     2 -0.1910573850716  0.1048300056703 -0.4873599104560 1.0
Ag     2 -0.4873599104560 -0.1910573850716  0.1048300056703 1.0
Ag     2  0.1048300056703 -0.4873599104560 -0.1910573850716 1.0
Ag     2  0.3090344995411  0.3090344995411  0.3090344995411 1.0
END
