TITL 2Ag2Se-200724-023138-adc79b 0.0072 128.711533 -2.30660774E+004 0 0 6 (Aea2) n - 1
REM
REM Run started: Fri, 24 Jul 2020 02:42:40 +0100 in /rds/user/bz240/hpc-work/airss-fw/launch_tmp/launcher_2020-07-24-01-31-36-702805
REM CASTEP 19.11| from code version Version unavailable
REM Functional Perdew Burke Ernzerhof Relativity Koelling-Harmon Dispersion off
REM Cut-off 300.0000 eV Grid scale 1.7500 Gmax 15.5288 1/A FBSC none
REM MP grid 3 3 3 Offset 0.000 0.000 0.000 No. kpts 8 Spacing 0.07
REM Total runtime: 854.04 s
REM Overall efficiency: 86.25 %
REM
REM 2Ag2Se.cell (28ba953ba57c5a31f5193472e679a60a)
REM
REM compiler GCC version 4.8.5 20150623 (Red Hat 4.8.5-39)
REM options -cpp -mtune=generic -march=x86-64 -g -Og
REM COMMAND_LINE
REM seed -409155820 -724779598 277405419 -2053663327 -1934473838 534084968 -1461382141 -306495377 -468956093 1931481357 1794287695 1805036663
REM
REM Se 3|2.1|7|7|9|40:41:32(qc=5)
REM Ag 3|2.2|7|7|9|40U:50:41:42(qc=5)
REM 
CELL 1.54180    5.43476    4.90804    4.90804  100.53237   90.00000   90.00000
LATT -1
SFAC Se Ag 
Se     1 -0.5000000000000  0.1565811565662  0.1565811565662 1.0
Se     1 -0.0000000000000 -0.3434188434338 -0.3434188434338 1.0
Ag     2 -0.1038544480723  0.1159928398800  0.4726264035538 1.0
Ag     2  0.1038544480723  0.4726264035538  0.1159928398800 1.0
Ag     2  0.3961455519277 -0.0273735964462 -0.3840071601200 1.0
Ag     2 -0.3961455519277 -0.3840071601200 -0.0273735964462 1.0
END
