TITL 2Ag2Se-200724-030510-8c3603 0.0146 119.332549 -2.30662048E+004 0 0 6 (P-1) n - 1
REM
REM Run started: Fri, 24 Jul 2020 03:51:28 +0100 in /rds/user/bz240/hpc-work/airss-fw/launch_tmp/launcher_2020-07-24-02-05-08-824713
REM CASTEP 19.11| from code version Version unavailable
REM Functional Perdew Burke Ernzerhof Relativity Koelling-Harmon Dispersion off
REM Cut-off 300.0000 eV Grid scale 1.7500 Gmax 15.5288 1/A FBSC none
REM MP grid 4 4 3 Offset 0.000 0.000 0.000 No. kpts 24 Spacing 0.07
REM Total runtime: 2960.44 s
REM Overall efficiency: 93.625 %
REM
REM 2Ag2Se.cell (28ba953ba57c5a31f5193472e679a60a)
REM
REM compiler GCC version 4.8.5 20150623 (Red Hat 4.8.5-39)
REM options -cpp -mtune=generic -march=x86-64 -g -Og
REM COMMAND_LINE
REM seed -333316574 -1865689827 1290410642 1838404616 1458142722 -1275377095 1716809905 431762502 -1857365269 -1774884696 741842016 1246889138
REM
REM Se 3|2.1|7|7|9|40:41:32(qc=5)
REM Ag 3|2.2|7|7|9|40U:50:41:42(qc=5)
REM 
CELL 1.54180    4.58685    4.16044    6.75607   76.35021   78.34352   74.38284
LATT -1
SFAC Se Ag 
Se     1 -0.7432071119386 -0.3783468214246  0.2673636693534 1.0
Se     1  0.7432071119386  0.3783468214246 -0.2673636693534 1.0
Ag     2  0.2229140128201  0.2091090032036 -0.0477448329512 1.0
Ag     2 -0.2229140128201 -0.2091090032036  0.0477448329512 1.0
Ag     2  0.2222205328208 -0.1619025167009 -0.3693542142978 1.0
Ag     2 -0.2222205328208  0.1619025167009  0.3693542142978 1.0
END
