TITL 2Ag2Se-200724-025751-afb38d -0.0479 119.380452 -2.30661775E+004 0 0 6 (Fddd) n - 1
REM
REM Run started: Fri, 24 Jul 2020 03:06:08 +0100 in /scratch/scratch/uccabz1/launch_tmp/launcher_2020-07-24-01-57-49-694659
REM CASTEP 19.11| from code version Version unavailable
REM Functional Perdew Burke Ernzerhof Relativity Koelling-Harmon Dispersion off
REM Cut-off 300.0000 eV Grid scale 1.7500 Gmax 15.5288 1/A FBSC none
REM MP grid 4 4 3 Offset 0.000 0.000 0.000 No. kpts 24 Spacing 0.07
REM Total runtime: 828.56 s
REM Overall efficiency: 89.4 %
REM
REM 2Ag2Se.cell (28ba953ba57c5a31f5193472e679a60a)
REM
REM compiler GCC version 4.9.2
REM options -cpp -iprefix /scratch/UCL/applications/gcc/4.9.2/bin/../lib/gcc/x86_64-unknown-linux-gnu/4.9.2/ -mtune=corei7 -march=x86-64 -g -O2
REM COMMAND_LINE
REM seed -1686868272 -958756312 1007994414 1969752947 -1937390135 105007885 -1719068941 -676124011 -192492644 -1893281724 1854771683 1025496176
REM
REM Se 3|2.1|7|7|9|40:41:32(qc=5)
REM Ag 3|2.2|7|7|9|40U:50:41:42(qc=5)
REM 
CELL 1.54180    4.26059    5.13373    6.36584   82.01789   70.44909   65.48322
LATT -1
SFAC Se Ag 
Se     1 -0.0767709218933  0.1535419437866 -0.0000000000000 1.0
Se     1 -0.8267709218933  0.6535419437866  0.5000000000000 1.0
Ag     2 -0.1596483808973 -0.3464580562134  0.1657549180081 1.0
Ag     2  0.5061065371108 -0.3464580562134 -0.1657549180081 1.0
Ag     2  0.5903516191027 -0.8464580562134 -0.3342450819919 1.0
Ag     2 -0.7438934628892  1.1535419437866  0.3342450819919 1.0
END
