TITL 2Ag2Se-200724-025856-eac610 -0.0459 133.555745 -2.30659447E+004 0 0 6 (P2/m) n - 1
REM
REM Run started: Fri, 24 Jul 2020 03:37:56 +0100 in /scratch/scratch/uccabz1/launch_tmp/launcher_2020-07-24-01-58-54-711057
REM CASTEP 19.11| from code version Version unavailable
REM Functional Perdew Burke Ernzerhof Relativity Koelling-Harmon Dispersion off
REM Cut-off 300.0000 eV Grid scale 1.7500 Gmax 15.5288 1/A FBSC none
REM MP grid 3 4 3 Offset 0.000 0.000 0.000 No. kpts 10 Spacing 0.07
REM Total runtime: 2518.8 s
REM Overall efficiency: 90 %
REM
REM 2Ag2Se.cell (28ba953ba57c5a31f5193472e679a60a)
REM
REM compiler GCC version 4.9.2
REM options -cpp -iprefix /scratch/UCL/applications/gcc/4.9.2/bin/../lib/gcc/x86_64-unknown-linux-gnu/4.9.2/ -mtune=corei7 -march=x86-64 -g -O2
REM COMMAND_LINE
REM seed -1360140052 -1268443688 -719202738 -859515972 171324007 1976533372 349305151 919389396 878327852 -1011300944 -967684893 1443524697
REM
REM Se 3|2.1|7|7|9|40:41:32(qc=5)
REM Ag 3|2.2|7|7|9|40U:50:41:42(qc=5)
REM 
CELL 1.54180    5.23841    4.41626    5.88907   90.00000  101.38980   90.00000
LATT -1
SFAC Se Ag 
Se     1  0.1901690259702 -0.2197497954519  0.3197223362906 1.0
Se     1 -0.1901690259702 -0.2197497954519 -0.3197223362906 1.0
Ag     2 -0.3190084179690 -0.2182938909808  0.2113523860351 1.0
Ag     2  0.3190084179690 -0.2182938909808 -0.2113523860351 1.0
Ag     2  0.2824748788974  0.2805448864326  0.1137938928856 1.0
Ag     2 -0.2824748788974  0.2805448864326 -0.1137938928856 1.0
END
