TITL 2Ag2Se-200724-020105-57b9d3 0.0014 130.219953 -2.30663450E+004 0 0 6 (R32) n - 1
REM
REM Run started: Fri, 24 Jul 2020 02:18:43 +0100 in /scratch/scratch/uccabz1/launch_tmp/launcher_2020-07-24-01-01-03-481544
REM CASTEP 19.11| from code version Version unavailable
REM Functional Perdew Burke Ernzerhof Relativity Koelling-Harmon Dispersion off
REM Cut-off 300.0000 eV Grid scale 1.7500 Gmax 15.5288 1/A FBSC none
REM MP grid 3 3 3 Offset 0.000 0.000 0.000 No. kpts 6 Spacing 0.07
REM Total runtime: 1100.4 s
REM Overall efficiency: 82.3 %
REM
REM 2Ag2Se.cell (28ba953ba57c5a31f5193472e679a60a)
REM
REM compiler GCC version 4.9.2
REM options -cpp -iprefix /scratch/UCL/applications/gcc/4.9.2/bin/../lib/gcc/x86_64-unknown-linux-gnu/4.9.2/ -mtune=corei7 -march=x86-64 -g -O2
REM COMMAND_LINE
REM seed -602886564 -1620471535 14488586 1526270287 -1499241424 1596853904 169570344 948385382 -1908049148 2000038693 -903226825 -1014882204
REM
REM Se 3|2.1|7|7|9|40:41:32(qc=5)
REM Ag 3|2.2|7|7|9|40U:50:41:42(qc=5)
REM 
CELL 1.54180    5.06867    5.06867    5.06867   90.13360   90.13360   90.13360
LATT -1
SFAC Se Ag 
Se     1  0.7138744225552 -0.2861255774448 -0.2861255774448 1.0
Se     1 -0.6993937596318  0.3006062403682  0.3006062403682 1.0
Ag     2 -0.4934140278285  0.2077206819675 -0.1936192690884 1.0
Ag     2 -1.1936192690884  0.5065859721715  0.2077206819675 1.0
Ag     2 -0.7922793180325 -0.1936192690884  0.5065859721715 1.0
Ag     2  0.0071516520260  0.0071516520260  0.0071516520260 1.0
END
