TITL 2Ag2Se-200724-025903-2a51d9 -0.0185 122.845195 -2.30662381E+004 0 0 6 (Pc) n - 1
REM
REM Run started: Fri, 24 Jul 2020 03:10:02 +0100 in /rds/user/bz240/hpc-work/airss-fw/launch_tmp/launcher_2020-07-24-01-59-01-896951
REM CASTEP 19.11| from code version Version unavailable
REM Functional Perdew Burke Ernzerhof Relativity Koelling-Harmon Dispersion off
REM Cut-off 300.0000 eV Grid scale 1.7500 Gmax 15.5288 1/A FBSC none
REM MP grid 4 4 3 Offset 0.000 0.000 0.000 No. kpts 16 Spacing 0.07
REM Total runtime: 742.03 s
REM Overall efficiency: 88.5 %
REM
REM 2Ag2Se.cell (28ba953ba57c5a31f5193472e679a60a)
REM
REM compiler GCC version 4.8.5 20150623 (Red Hat 4.8.5-39)
REM options -cpp -mtune=generic -march=x86-64 -g -Og
REM COMMAND_LINE
REM seed -467791843 288809440 -422787193 518339738 629759986 787784302 371866000 -572284001 1164574579 -1650126915 -1866956279 -1132162240
REM
REM Se 3|2.1|7|7|9|40:41:32(qc=5)
REM Ag 3|2.2|7|7|9|40U:50:41:42(qc=5)
REM 
CELL 1.54180    4.07361    4.84115    7.03331   90.00000   90.00000  117.66632
LATT -1
SFAC Se Ag 
Se     1  0.3017763218303  0.3323681933245  0.2434843679253 1.0
Se     1  0.3017763218303 -0.1676318066755 -0.2434843679253 1.0
Ag     2 -0.3854998073423 -0.0510113768084  0.1166731429842 1.0
Ag     2 -0.3854998073423  0.4489886231916 -0.1166731429842 1.0
Ag     2 -0.0085693144880 -0.2832196165162  0.3884595538667 1.0
Ag     2 -0.0085693144880  0.2167803834838 -0.3884595538667 1.0
END
