TITL 2Ag2Se-200724-024054-565942 0.0014 130.082204 -2.30663397E+004 0 0 6 (R32) n - 1
REM
REM Run started: Fri, 24 Jul 2020 02:56:08 +0100 in /rds/user/bz240/hpc-work/airss-fw/launch_tmp/launcher_2020-07-24-01-40-52-121122
REM CASTEP 19.11| from code version Version unavailable
REM Functional Perdew Burke Ernzerhof Relativity Koelling-Harmon Dispersion off
REM Cut-off 300.0000 eV Grid scale 1.7500 Gmax 15.5288 1/A FBSC none
REM MP grid 3 3 3 Offset 0.000 0.000 0.000 No. kpts 6 Spacing 0.07
REM Total runtime: 956.98 s
REM Overall efficiency: 87.25 %
REM
REM 2Ag2Se.cell (28ba953ba57c5a31f5193472e679a60a)
REM
REM compiler GCC version 4.8.5 20150623 (Red Hat 4.8.5-39)
REM options -cpp -mtune=generic -march=x86-64 -g -Og
REM COMMAND_LINE
REM seed -1253126600 2009994831 287161465 -1340326589 -1602655339 1638084002 -2124784908 -1718805753 1836361548 1668394878 -377253913 -658155364
REM
REM Se 3|2.1|7|7|9|40:41:32(qc=5)
REM Ag 3|2.2|7|7|9|40U:50:41:42(qc=5)
REM 
CELL 1.54180    5.06687    5.06687    5.06687   89.92505   89.92505   89.92505
LATT -1
SFAC Se Ag 
Se     1  0.2876758815928  0.2876758815928  0.2876758815928 1.0
Se     1 -0.1277435382075 -0.1277435382075 -0.1277435382075 1.0
Ag     2 -0.2166990865548  0.3778279167487  0.0802084570692 1.0
Ag     2  0.0802084570692 -0.2166990865548  0.3778279167487 1.0
Ag     2  0.3778279167487  0.0802084570692 -0.2166990865548 1.0
Ag     2 -0.4198323306483 -0.4198323306483 -0.4198323306483 1.0
END
