TITL 2Ag2Se-200724-025708-c4a32e -0.0697 121.980208 -2.30663982E+004 0 0 6 (P21) n - 1
REM
REM Run started: Fri, 24 Jul 2020 03:41:22 +0100 in /scratch/scratch/uccabz1/launch_tmp/launcher_2020-07-24-01-57-06-491132
REM CASTEP 19.11| from code version Version unavailable
REM Functional Perdew Burke Ernzerhof Relativity Koelling-Harmon Dispersion off
REM Cut-off 300.0000 eV Grid scale 1.7500 Gmax 15.5288 1/A FBSC none
REM MP grid 4 4 3 Offset 0.000 0.000 0.000 No. kpts 16 Spacing 0.07
REM Total runtime: 2735.73 s
REM Overall efficiency: 90.0909 %
REM
REM 2Ag2Se.cell (28ba953ba57c5a31f5193472e679a60a)
REM
REM compiler GCC version 4.9.2
REM options -cpp -iprefix /scratch/UCL/applications/gcc/4.9.2/bin/../lib/gcc/x86_64-unknown-linux-gnu/4.9.2/ -mtune=corei7 -march=x86-64 -g -O2
REM COMMAND_LINE
REM seed -1691841562 -961799502 1761841347 1473365165 -903285168 44634982 -2001679072 -1597922159 -2019784502 -11485775 -1186458096 820059232
REM
REM Se 3|2.1|7|7|9|40:41:32(qc=5)
REM Ag 3|2.2|7|7|9|40U:50:41:42(qc=5)
REM 
CELL 1.54180    4.12637    4.46193    7.00913   90.00000   90.00000  109.05177
LATT -1
SFAC Se Ag 
Se     1 -0.2584479134021  0.2939028434309  0.4573422531595 1.0
Se     1  0.2584479134021 -0.2939028434309 -0.0426577468405 1.0
Ag     2 -0.0123903421580 -0.0757329574579 -0.3346446315155 1.0
Ag     2  0.0123903421580  0.0757329574579  0.1653553684845 1.0
Ag     2 -0.3719167085528  0.3079649031240 -0.1338463216440 1.0
Ag     2  0.3719167085528 -0.3079649031240  0.3661536783560 1.0
END
