TITL 2Ag2Se-200724-022702-70dd4d -0.0386 129.949135 -2.30663313E+004 0 0 6 (R32) n - 1
REM
REM Run started: Fri, 24 Jul 2020 02:33:43 +0100 in /rds/user/bz240/hpc-work/airss-fw/launch_tmp/launcher_2020-07-24-01-27-00-996036
REM CASTEP 19.11| from code version Version unavailable
REM Functional Perdew Burke Ernzerhof Relativity Koelling-Harmon Dispersion off
REM Cut-off 300.0000 eV Grid scale 1.7500 Gmax 15.5288 1/A FBSC none
REM MP grid 3 3 3 Offset 0.000 0.000 0.000 No. kpts 6 Spacing 0.07
REM Total runtime: 463.18 s
REM Overall efficiency: 81.8 %
REM
REM 2Ag2Se.cell (28ba953ba57c5a31f5193472e679a60a)
REM
REM compiler GCC version 4.8.5 20150623 (Red Hat 4.8.5-39)
REM options -cpp -mtune=generic -march=x86-64 -g -Og
REM COMMAND_LINE
REM seed 1560900958 -1034966230 -2128365004 -1068735291 1819327163 226545794 818461533 -362693302 2135097172 1248005038 305521378 -2075015336
REM
REM Se 3|2.1|7|7|9|40:41:32(qc=5)
REM Ag 3|2.2|7|7|9|40U:50:41:42(qc=5)
REM 
CELL 1.54180    5.06515    5.06515    5.06515   89.88391   89.88391   89.88391
LATT -1
SFAC Se Ag 
Se     1 -0.3760554758492 -0.3760554758492 -0.3760554758492 1.0
Se     1  0.0411683152735  0.0411683152735  0.0411683152735 1.0
Ag     2  0.1279625441044 -0.4625093583994 -0.1674741235615 1.0
Ag     2 -0.4625093583994 -0.1674741235615  0.1279625441044 1.0
Ag     2 -0.1674741235615  0.1279625441044 -0.4625093583994 1.0
Ag     2  0.3327974984322  0.3327974984322  0.3327974984322 1.0
END
