TITL 2Ag2Se-200724-010245-b810c5 0.0004 132.363160 -2.30659140E+004 0 0 6 (Cm) n - 1
REM
REM Run started: Fri, 24 Jul 2020 01:26:33 +0100 in /rds/user/bz240/hpc-work/airss-fw/launch_tmp/launcher_2020-07-24-00-02-43-275303
REM CASTEP 19.11| from code version Version unavailable
REM Functional Perdew Burke Ernzerhof Relativity Koelling-Harmon Dispersion off
REM Cut-off 300.0000 eV Grid scale 1.7500 Gmax 15.5288 1/A FBSC none
REM MP grid 4 4 2 Offset 0.000 0.000 0.000 No. kpts 16 Spacing 0.07
REM Total runtime: 1505.66 s
REM Overall efficiency: 92.1667 %
REM
REM 2Ag2Se.cell (28ba953ba57c5a31f5193472e679a60a)
REM
REM compiler GCC version 4.8.5 20150623 (Red Hat 4.8.5-39)
REM options -cpp -mtune=generic -march=x86-64 -g -Og
REM COMMAND_LINE
REM seed -1839779504 682933695 -213463243 -72283541 1469117372 -599064395 30617885 -1507644897 -1907547182 -1264425095 2084866133 -291393452
REM
REM Se 3|2.1|7|7|9|40:41:32(qc=5)
REM Ag 3|2.2|7|7|9|40U:50:41:42(qc=5)
REM 
CELL 1.54180    4.38396    4.83420    7.61515   71.49384   80.83196   59.86916
LATT -1
SFAC Se Ag 
Se     1  0.1788004704161 -0.4529508517553 -0.2499916240832 1.0
Se     1  0.1788004704161  0.2970575241615  0.2499916240832 1.0
Ag     2 -0.1182531823071 -0.0537679451420  0.2094513693946 1.0
Ag     2 -0.1182531823071  0.1556834242526 -0.2094513693946 1.0
Ag     2 -0.4602702881090 -0.0857328488553 -0.4059512538062 1.0
Ag     2 -0.4602702881090 -0.4916841026615  0.4059512538062 1.0
END
