TITL 2Ag2Se-200724-024141-945f69 -0.0227 128.838019 -2.30661700E+004 0 0 6 (Cc) n - 1
REM
REM Run started: Fri, 24 Jul 2020 02:58:25 +0100 in /rds/user/bz240/hpc-work/airss-fw/launch_tmp/launcher_2020-07-24-01-41-38-983085
REM CASTEP 19.11| from code version Version unavailable
REM Functional Perdew Burke Ernzerhof Relativity Koelling-Harmon Dispersion off
REM Cut-off 300.0000 eV Grid scale 1.7500 Gmax 15.5288 1/A FBSC none
REM MP grid 3 3 3 Offset 0.000 0.000 0.000 No. kpts 10 Spacing 0.07
REM Total runtime: 1042.26 s
REM Overall efficiency: 69.8571 %
REM
REM 2Ag2Se.cell (28ba953ba57c5a31f5193472e679a60a)
REM
REM compiler GCC version 4.8.5 20150623 (Red Hat 4.8.5-39)
REM options -cpp -mtune=generic -march=x86-64 -g -Og
REM COMMAND_LINE
REM seed -65752744 1329732281 -1423698060 -1572188450 1616374274 305959911 -1089885681 1491994704 -2140598509 -609260047 880709258 580863316
REM
REM Se 3|2.1|7|7|9|40:41:32(qc=5)
REM Ag 3|2.2|7|7|9|40U:50:41:42(qc=5)
REM 
CELL 1.54180    4.83345    4.83345    5.55717   92.58099   92.58099   95.94149
LATT -1
SFAC Se Ag 
Se     1 -0.1884019572157  0.3854846258176  0.3617033173688 1.0
Se     1  0.3854846258176 -0.1884019572157 -0.1382966826312 1.0
Ag     2 -0.0805628157438 -0.0730576937824 -0.4143981017083 1.0
Ag     2 -0.0730576937824 -0.0805628157438  0.0856018982917 1.0
Ag     2 -0.3751238810480  0.3359053219723 -0.1544126156605 1.0
Ag     2  0.3359053219723 -0.3751238810480  0.3455873843395 1.0
END
