TITL 2Ag2Se-200724-022913-45d357 -0.0570 124.772983 -2.30659602E+004 0 0 6 (Cmcm) n - 1
REM
REM Run started: Fri, 24 Jul 2020 02:33:48 +0100 in /rds/user/bz240/hpc-work/airss-fw/launch_tmp/launcher_2020-07-24-01-29-12-015023
REM CASTEP 19.11| from code version Version unavailable
REM Functional Perdew Burke Ernzerhof Relativity Koelling-Harmon Dispersion off
REM Cut-off 300.0000 eV Grid scale 1.7500 Gmax 15.5288 1/A FBSC none
REM MP grid 4 3 3 Offset 0.000 0.000 0.000 No. kpts 8 Spacing 0.07
REM Total runtime: 337.48 s
REM Overall efficiency: 85 %
REM
REM 2Ag2Se.cell (28ba953ba57c5a31f5193472e679a60a)
REM
REM compiler GCC version 4.8.5 20150623 (Red Hat 4.8.5-39)
REM options -cpp -mtune=generic -march=x86-64 -g -Og
REM COMMAND_LINE
REM seed -1956342648 393812622 37085197 1736805095 -1062658586 -866205350 1676107938 121156466 -693805667 1152905973 -1993896929 313822709
REM
REM Se 3|2.1|7|7|9|40:41:32(qc=5)
REM Ag 3|2.2|7|7|9|40U:50:41:42(qc=5)
REM 
CELL 1.54180    4.59873    5.24612    5.24612   99.65338   90.00000   90.00000
LATT -1
SFAC Se Ag 
Se     1  0.0000000000000  0.2467525821192  0.2467525821192 1.0
Se     1 -0.5000000000000 -0.2467525821192 -0.2467525821192 1.0
Ag     2  0.0000000000000 -0.3177529323346  0.0476762333557 1.0
Ag     2 -0.5000000000000  0.3177529323346 -0.0476762333557 1.0
Ag     2  0.5000000000000 -0.0476762333557  0.3177529323346 1.0
Ag     2  0.0000000000000  0.0476762333557 -0.3177529323346 1.0
END
