TITL 2Ag2Se-200724-010016-2a1f54 -0.0069 118.967179 -2.30658601E+004 0 0 6 (C2/m) n - 1
REM
REM Run started: Fri, 24 Jul 2020 01:05:46 +0100 in /rds/user/bz240/hpc-work/airss-fw/launch_tmp/launcher_2020-07-24-00-00-14-558553
REM CASTEP 19.11| from code version Version unavailable
REM Functional Perdew Burke Ernzerhof Relativity Koelling-Harmon Dispersion off
REM Cut-off 300.0000 eV Grid scale 1.7500 Gmax 15.5288 1/A FBSC none
REM MP grid 4 4 3 Offset 0.000 0.000 0.000 No. kpts 12 Spacing 0.07
REM Total runtime: 407.07 s
REM Overall efficiency: 87.2 %
REM
REM 2Ag2Se.cell (28ba953ba57c5a31f5193472e679a60a)
REM
REM compiler GCC version 4.8.5 20150623 (Red Hat 4.8.5-39)
REM options -cpp -mtune=generic -march=x86-64 -g -Og
REM COMMAND_LINE
REM seed -1661729693 1061670721 365076284 -579544376 -3311144 -432826836 -945677911 -1947970644 1261179775 -1916196523 -1343794221 -2045050602
REM
REM Se 3|2.1|7|7|9|40:41:32(qc=5)
REM Ag 3|2.2|7|7|9|40U:50:41:42(qc=5)
REM 
CELL 1.54180    3.79091    4.74284    6.85492   90.00000  105.14726   90.00000
LATT -1
SFAC Se Ag 
Se     1  0.0602263000000 -0.2500000000000  0.4038898000000 1.0
Se     1  0.0602263000000  0.2500000000000 -0.0961102000000 1.0
Ag     2 -0.2550073580378 -0.2500000000000 -0.2669332590527 1.0
Ag     2 -0.2550073580378  0.2500000000000  0.2330667409473 1.0
Ag     2  0.3754599580378  0.2500000000000 -0.4252871409473 1.0
Ag     2  0.3754599580378 -0.2500000000000  0.0747128590527 1.0
END
