TITL 2Ag2Se-200724-010245-f4a7ca -0.0489 122.024400 -2.30661680E+004 0 0 6 (Aem2) n - 1
REM
REM Run started: Fri, 24 Jul 2020 01:31:08 +0100 in /rds/user/bz240/hpc-work/airss-fw/launch_tmp/launcher_2020-07-24-00-02-43-287483
REM CASTEP 19.11| from code version Version unavailable
REM Functional Perdew Burke Ernzerhof Relativity Koelling-Harmon Dispersion off
REM Cut-off 300.0000 eV Grid scale 1.7500 Gmax 15.5288 1/A FBSC none
REM MP grid 4 4 3 Offset 0.000 0.000 0.000 No. kpts 16 Spacing 0.07
REM Total runtime: 1816.54 s
REM Overall efficiency: 90.875 %
REM
REM 2Ag2Se.cell (28ba953ba57c5a31f5193472e679a60a)
REM
REM compiler GCC version 4.8.5 20150623 (Red Hat 4.8.5-39)
REM options -cpp -mtune=generic -march=x86-64 -g -Og
REM COMMAND_LINE
REM seed 980949894 763868861 -1975130065 891060189 -790645211 1312641579 -399151435 894806215 -167173862 1883653492 786503668 2021537409
REM
REM Se 3|2.1|7|7|9|40:41:32(qc=5)
REM Ag 3|2.2|7|7|9|40U:50:41:42(qc=5)
REM 
CELL 1.54180    4.92220    4.52196    6.46449   90.00000   90.00000  121.99873
LATT -1
SFAC Se Ag 
Se     1  0.3778006851732  0.3860695602431 -0.2340750182806 1.0
Se     1 -0.1221993148268  0.3860695602431  0.2340750182806 1.0
Ag     2 -0.2701680938721  0.0826074755060 -0.1701442389676 1.0
Ag     2  0.2298319061279  0.0826074755060  0.1701442389676 1.0
Ag     2  0.0602917086989 -0.2573921357492 -0.3896695741328 1.0
Ag     2 -0.4397082913011 -0.2573921357492  0.3896695741328 1.0
END
