TITL 2Ag2Se-200724-013428-29318f 0.0305 116.765940 -2.30658421E+004 0 0 6 (C2/m) n - 1
REM
REM Run started: Fri, 24 Jul 2020 01:42:55 +0100 in /scratch/scratch/uccabz1/launch_tmp/launcher_2020-07-24-00-34-26-630135
REM CASTEP 19.11| from code version Version unavailable
REM Functional Perdew Burke Ernzerhof Relativity Koelling-Harmon Dispersion off
REM Cut-off 300.0000 eV Grid scale 1.7500 Gmax 15.5288 1/A FBSC none
REM MP grid 4 3 3 Offset 0.000 0.000 0.000 No. kpts 12 Spacing 0.07
REM Total runtime: 574.66 s
REM Overall efficiency: 83.5 %
REM
REM 2Ag2Se.cell (28ba953ba57c5a31f5193472e679a60a)
REM
REM compiler GCC version 4.9.2
REM options -cpp -iprefix /scratch/UCL/applications/gcc/4.9.2/bin/../lib/gcc/x86_64-unknown-linux-gnu/4.9.2/ -mtune=corei7 -march=x86-64 -g -O2
REM COMMAND_LINE
REM seed -1817194926 156331546 -1623041116 -866370221 -1159649699 1364033387 -1647011419 -1868407715 -1326784259 1079554279 -1507180789 267741566
REM
REM Se 3|2.1|7|7|9|40:41:32(qc=5)
REM Ag 3|2.2|7|7|9|40U:50:41:42(qc=5)
REM 
CELL 1.54180    4.59113    5.12318    5.36678   90.00000  112.33098   90.00000
LATT -1
SFAC Se Ag 
Se     1  0.2500000000000 -0.2459859030328  0.2500000000000 1.0
Se     1 -0.2500000000000  0.2459859030328 -0.2500000000000 1.0
Ag     2 -0.0999444298115 -0.2510666060122 -0.4361217599470 1.0
Ag     2 -0.4000555701885 -0.2510666060122 -0.0638782400530 1.0
Ag     2  0.0999444298115  0.2510666060122  0.4361217599470 1.0
Ag     2  0.4000555701885  0.2510666060122  0.0638782400530 1.0
END
