TITL 2Ag2Se-200724-012202-2ba849 0.0133 115.759367 -2.30659397E+004 0 0 6 (C2/m) n - 1
REM
REM Run started: Fri, 24 Jul 2020 01:38:56 +0100 in /scratch/scratch/uccabz1/launch_tmp/launcher_2020-07-24-00-21-59-820093
REM CASTEP 19.11| from code version Version unavailable
REM Functional Perdew Burke Ernzerhof Relativity Koelling-Harmon Dispersion off
REM Cut-off 300.0000 eV Grid scale 1.7500 Gmax 15.5288 1/A FBSC none
REM MP grid 4 4 3 Offset 0.000 0.000 0.000 No. kpts 24 Spacing 0.07
REM Total runtime: 1096.44 s
REM Overall efficiency: 89.3333 %
REM
REM 2Ag2Se.cell (28ba953ba57c5a31f5193472e679a60a)
REM
REM compiler GCC version 4.9.2
REM options -cpp -iprefix /scratch/UCL/applications/gcc/4.9.2/bin/../lib/gcc/x86_64-unknown-linux-gnu/4.9.2/ -mtune=corei7 -march=x86-64 -g -O2
REM COMMAND_LINE
REM seed 1206924214 -938463363 -642920495 -1882848447 1367298005 1949533650 -1421514879 1569173638 1675178626 -1433384 -204674543 2106237200
REM
REM Se 3|2.1|7|7|9|40:41:32(qc=5)
REM Ag 3|2.2|7|7|9|40U:50:41:42(qc=5)
REM 
CELL 1.54180    4.89249    4.93581    5.66891  101.43688   90.00000  119.71008
LATT -1
SFAC Se Ag 
Se     1  0.1514465311588 -0.3909024509144 -0.2202085015750 1.0
Se     1 -0.4576510179268  0.3909024509144  0.2202085015750 1.0
Ag     2 -0.1156574176097  0.0756566062808  0.2676362958220 1.0
Ag     2 -0.1913140238905 -0.0756566062808 -0.2676362958220 1.0
Ag     2  0.4750600606754  0.2576740930826 -0.2891796405719 1.0
Ag     2  0.2173859675928 -0.2576740930826  0.2891796405719 1.0
END
