TITL 2Ag2Se-200724-030917-da488e -0.0523 126.799704 -2.30662787E+004 0 0 6 (P21) n - 1
REM
REM Run started: Fri, 24 Jul 2020 03:16:55 +0100 in /scratch/scratch/uccabz1/launch_tmp/launcher_2020-07-24-02-09-15-583267
REM CASTEP 19.11| from code version Version unavailable
REM Functional Perdew Burke Ernzerhof Relativity Koelling-Harmon Dispersion off
REM Cut-off 300.0000 eV Grid scale 1.7500 Gmax 15.5288 1/A FBSC none
REM MP grid 4 3 3 Offset 0.000 0.000 0.000 No. kpts 12 Spacing 0.07
REM Total runtime: 585.12 s
REM Overall efficiency: 85.6 %
REM
REM 2Ag2Se.cell (28ba953ba57c5a31f5193472e679a60a)
REM
REM compiler GCC version 4.9.2
REM options -cpp -iprefix /scratch/UCL/applications/gcc/4.9.2/bin/../lib/gcc/x86_64-unknown-linux-gnu/4.9.2/ -mtune=corei7 -march=x86-64 -g -O2
REM COMMAND_LINE
REM seed -1447069668 -1590911694 -518291902 1180773503 -124859348 -1376293736 -668898290 1002872266 1400735712 -985599511 -1786692470 -33578505
REM
REM Se 3|2.1|7|7|9|40:41:32(qc=5)
REM Ag 3|2.2|7|7|9|40U:50:41:42(qc=5)
REM 
CELL 1.54180    4.52126    5.12749    5.47567   90.00000   90.00000   92.70300
LATT -1
SFAC Se Ag 
Se     1 -0.2348491871654 -0.2977306328172 -0.2153088283380 1.0
Se     1  0.2348491871654  0.2977306328172  0.2846911716620 1.0
Ag     2  0.2431572757220  0.3649044078478 -0.2186447489541 1.0
Ag     2 -0.2431572757220 -0.3649044078478  0.2813552510459 1.0
Ag     2  0.2776101585496 -0.1278088144859  0.0220513772920 1.0
Ag     2 -0.2776101585496  0.1278088144859 -0.4779486227080 1.0
END
