TITL 2Ag2Se-200724-015559-3aee15 -0.0332 126.013646 -2.30662656E+004 0 0 6 (P21/m) n - 1
REM
REM Run started: Fri, 24 Jul 2020 02:07:02 +0100 in /rds/user/bz240/hpc-work/airss-fw/launch_tmp/launcher_2020-07-24-00-55-57-324268
REM CASTEP 19.11| from code version Version unavailable
REM Functional Perdew Burke Ernzerhof Relativity Koelling-Harmon Dispersion off
REM Cut-off 300.0000 eV Grid scale 1.7500 Gmax 15.5288 1/A FBSC none
REM MP grid 4 4 3 Offset 0.000 0.000 0.000 No. kpts 16 Spacing 0.07
REM Total runtime: 749.78 s
REM Overall efficiency: 90 %
REM
REM 2Ag2Se.cell (28ba953ba57c5a31f5193472e679a60a)
REM
REM compiler GCC version 4.8.5 20150623 (Red Hat 4.8.5-39)
REM options -cpp -mtune=generic -march=x86-64 -g -Og
REM COMMAND_LINE
REM seed -447243496 1093744729 -362009138 -1795979039 696306466 2115209884 -2109651109 -659215678 376943302 1671060721 1859481002 1787616413
REM
REM Se 3|2.1|7|7|9|40:41:32(qc=5)
REM Ag 3|2.2|7|7|9|40U:50:41:42(qc=5)
REM 
CELL 1.54180    4.17895    4.61909    6.62883   90.00000   90.00000   99.99591
LATT -1
SFAC Se Ag 
Se     1  0.3195973462486 -0.2056852054428  0.2956380000000 1.0
Se     1 -0.3195973462486  0.2056852054428 -0.2043620000000 1.0
Ag     2  0.1974029157335  0.2831467334974  0.0741237573411 1.0
Ag     2 -0.1974029157335 -0.2831467334974 -0.4258762426589 1.0
Ag     2  0.1974029157335  0.2831467334974 -0.4828477573411 1.0
Ag     2 -0.1974029157335 -0.2831467334974  0.0171522426589 1.0
END
