TITL 2Ag2Se-200724-023030-e6948d -0.0614 129.880055 -2.30663344E+004 0 0 6 (R32) n - 1
REM
REM Run started: Fri, 24 Jul 2020 02:40:28 +0100 in /scratch/scratch/uccabz1/launch_tmp/launcher_2020-07-24-01-30-28-824457
REM CASTEP 19.11| from code version Version unavailable
REM Functional Perdew Burke Ernzerhof Relativity Koelling-Harmon Dispersion off
REM Cut-off 300.0000 eV Grid scale 1.7500 Gmax 15.5288 1/A FBSC none
REM MP grid 3 3 3 Offset 0.000 0.000 0.000 No. kpts 6 Spacing 0.07
REM Total runtime: 654.22 s
REM Overall efficiency: 80.4286 %
REM
REM 2Ag2Se.cell (28ba953ba57c5a31f5193472e679a60a)
REM
REM compiler GCC version 4.9.2
REM options -cpp -iprefix /scratch/UCL/applications/gcc/4.9.2/bin/../lib/gcc/x86_64-unknown-linux-gnu/4.9.2/ -mtune=corei7 -march=x86-64 -g -O2
REM COMMAND_LINE
REM seed -273050931 1810798974 2135287758 -1903783909 -1983457872 -628964105 462129960 1330786118 -1782740722 197766221 -293266508 -1591118300
REM
REM Se 3|2.1|7|7|9|40:41:32(qc=5)
REM Ag 3|2.2|7|7|9|40U:50:41:42(qc=5)
REM 
CELL 1.54180    5.06424    5.06424    5.06424   90.08613   90.08613   90.08613
LATT -1
SFAC Se Ag 
Se     1  0.3652785024100  0.3652785024100  0.3652785024100 1.0
Se     1 -0.2204071335907 -0.2204071335907 -0.2204071335907 1.0
Ag     2 -0.4278118474844  0.2733016886974 -0.1283349991110 1.0
Ag     2  0.2733016886974 -0.1283349991110 -0.4278118474844 1.0
Ag     2 -0.1283349991110 -0.4278118474844  0.2733016886974 1.0
Ag     2  0.0721975890788  0.0721975890788  0.0721975890788 1.0
END
