TITL 2Ag2Se-200724-025102-12301b -0.0311 115.152054 -2.30661319E+004 0 0 6 (Cmc21) n - 1
REM
REM Run started: Fri, 24 Jul 2020 03:08:32 +0100 in /scratch/scratch/uccabz1/launch_tmp/launcher_2020-07-24-01-51-00-476152
REM CASTEP 19.11| from code version Version unavailable
REM Functional Perdew Burke Ernzerhof Relativity Koelling-Harmon Dispersion off
REM Cut-off 300.0000 eV Grid scale 1.7500 Gmax 15.5288 1/A FBSC none
REM MP grid 4 4 3 Offset 0.000 0.000 0.000 No. kpts 16 Spacing 0.07
REM Total runtime: 1136.87 s
REM Overall efficiency: 88.8333 %
REM
REM 2Ag2Se.cell (28ba953ba57c5a31f5193472e679a60a)
REM
REM compiler GCC version 4.9.2
REM options -cpp -iprefix /scratch/UCL/applications/gcc/4.9.2/bin/../lib/gcc/x86_64-unknown-linux-gnu/4.9.2/ -mtune=corei7 -march=x86-64 -g -O2
REM COMMAND_LINE
REM seed 1105939164 1338163060 879606696 -1256015132 2077438761 740115699 439848702 -477006931 1508558459 1092185878 1710312588 -1807544003
REM
REM Se 3|2.1|7|7|9|40:41:32(qc=5)
REM Ag 3|2.2|7|7|9|40U:50:41:42(qc=5)
REM 
CELL 1.54180    4.25472    5.03732    5.93916   90.00000   90.00000  115.22511
LATT -1
SFAC Se Ag 
Se     1 -0.1437539365794  0.2059197173614  0.1559997871817 1.0
Se     1  0.1437539365794 -0.2059197173614 -0.3440002128183 1.0
Ag     2 -0.1629585150448  0.1765416479273 -0.3444054998735 1.0
Ag     2  0.1629585150448 -0.1765416479273  0.1555945001265 1.0
Ag     2 -0.4878721805543 -0.4741423773929  0.4213337126917 1.0
Ag     2  0.4878721805543  0.4741423773929 -0.0786662873083 1.0
END
