TITL 2Ag2Se-200724-023619-934e8e -0.0079 126.717637 -2.30661901E+004 0 0 6 (R32) n - 1
REM
REM Run started: Fri, 24 Jul 2020 03:09:03 +0100 in /rds/user/bz240/hpc-work/airss-fw/launch_tmp/launcher_2020-07-24-01-36-17-300843
REM CASTEP 19.11| from code version Version unavailable
REM Functional Perdew Burke Ernzerhof Relativity Koelling-Harmon Dispersion off
REM Cut-off 300.0000 eV Grid scale 1.7500 Gmax 15.5288 1/A FBSC none
REM MP grid 3 3 3 Offset 0.000 0.000 0.000 No. kpts 6 Spacing 0.07
REM Total runtime: 2113.94 s
REM Overall efficiency: 91.3 %
REM
REM 2Ag2Se.cell (28ba953ba57c5a31f5193472e679a60a)
REM
REM compiler GCC version 4.8.5 20150623 (Red Hat 4.8.5-39)
REM options -cpp -mtune=generic -march=x86-64 -g -Og
REM COMMAND_LINE
REM seed 476605219 1466407561 -11310347 -700315240 -1659664584 982484316 757150321 -1764263547 -225684610 970299744 421850926 -1144899143
REM
REM Se 3|2.1|7|7|9|40:41:32(qc=5)
REM Ag 3|2.2|7|7|9|40U:50:41:42(qc=5)
REM 
CELL 1.54180    5.03639    5.03639    5.03639   85.69182   85.69182   85.69182
LATT -1
SFAC Se Ag 
Se     1  0.1809516832772  0.1809516832772  0.1809516832772 1.0
Se     1 -0.3788412230166 -0.3788412230166 -0.3788412230166 1.0
Ag     2  0.1250087188843  0.4019381258807 -0.3207602215705 1.0
Ag     2  0.4019381258807 -0.3207602215705  0.1250087188843 1.0
Ag     2 -0.3207602215705  0.1250087188843  0.4019381258807 1.0
Ag     2 -0.0984444834550 -0.0984444834550 -0.0984444834550 1.0
END
