TITL 2Ag2Se-200724-013729-b16f62 0.0338 114.658588 -2.30658491E+004 0 0 6 (P-1) n - 1
REM
REM Run started: Fri, 24 Jul 2020 02:14:09 +0100 in /rds/user/bz240/hpc-work/airss-fw/launch_tmp/launcher_2020-07-24-00-37-27-478248
REM CASTEP 19.11| from code version Version unavailable
REM Functional Perdew Burke Ernzerhof Relativity Koelling-Harmon Dispersion off
REM Cut-off 300.0000 eV Grid scale 1.7500 Gmax 15.5288 1/A FBSC none
REM MP grid 5 4 3 Offset 0.000 0.000 0.000 No. kpts 30 Spacing 0.07
REM Total runtime: 2308.43 s
REM Overall efficiency: 93.8571 %
REM
REM 2Ag2Se.cell (28ba953ba57c5a31f5193472e679a60a)
REM
REM compiler GCC version 4.8.5 20150623 (Red Hat 4.8.5-39)
REM options -cpp -mtune=generic -march=x86-64 -g -Og
REM COMMAND_LINE
REM seed 1075515053 1501960627 -27697872 -1356937424 -131570997 -728684244 1280891627 -412866832 -588772593 153416756 -2023286263 -376935132
REM
REM Se 3|2.1|7|7|9|40:41:32(qc=5)
REM Ag 3|2.2|7|7|9|40U:50:41:42(qc=5)
REM 
CELL 1.54180    3.44651    5.36853    7.13414   69.56250   90.59915   69.65112
LATT -1
SFAC Se Ag 
Se     1 -0.4601022563347  0.3767866286312 -0.2142541657520 1.0
Se     1  0.4601022563347 -0.3767866286312  0.2142541657520 1.0
Ag     2  0.1532278883503  0.2006191100146  0.1359125337574 1.0
Ag     2 -0.1532278883503 -0.2006191100146 -0.1359125337574 1.0
Ag     2 -0.1448251269254 -0.1916069302212  0.4523948351998 1.0
Ag     2  0.1448251269254  0.1916069302212 -0.4523948351998 1.0
END
