TITL 2Ag2Se-200724-023846-27a844 -0.0190 118.703486 -2.30658584E+004 0 0 6 (C2/m) n - 1
REM
REM Run started: Fri, 24 Jul 2020 02:43:56 +0100 in /scratch/scratch/uccabz1/launch_tmp/launcher_2020-07-24-01-38-44-828738
REM CASTEP 19.11| from code version Version unavailable
REM Functional Perdew Burke Ernzerhof Relativity Koelling-Harmon Dispersion off
REM Cut-off 300.0000 eV Grid scale 1.7500 Gmax 15.5288 1/A FBSC none
REM MP grid 4 4 3 Offset 0.000 0.000 0.000 No. kpts 12 Spacing 0.07
REM Total runtime: 396.33 s
REM Overall efficiency: 82.8 %
REM
REM 2Ag2Se.cell (28ba953ba57c5a31f5193472e679a60a)
REM
REM compiler GCC version 4.9.2
REM options -cpp -iprefix /scratch/UCL/applications/gcc/4.9.2/bin/../lib/gcc/x86_64-unknown-linux-gnu/4.9.2/ -mtune=corei7 -march=x86-64 -g -O2
REM COMMAND_LINE
REM seed -313135918 -832065694 -1579643478 1795597356 -909958496 688164419 -404325405 1713723937 1655635433 -1958363290 -943534228 8427813
REM
REM Se 3|2.1|7|7|9|40:41:32(qc=5)
REM Ag 3|2.2|7|7|9|40U:50:41:42(qc=5)
REM 
CELL 1.54180    3.79513    4.75716    6.82317   90.00000  105.50357   90.00000
LATT -1
SFAC Se Ag 
Se     1  0.0000000000000  0.0000000000000  0.0000000000000 1.0
Se     1  1.0000000000000  0.5000000000000  0.5000000000000 1.0
Ag     2 -0.6824019005262  0.0008256160320 -0.3296039707626 1.0
Ag     2 -0.3175980994738 -0.4991743839680 -0.1703960292374 1.0
Ag     2  0.6824019005262 -0.0008256160320  0.3296039707626 1.0
Ag     2  0.3175980994738  0.4991743839680  0.1703960292374 1.0
END
