TITL 2Ag2Se-200724-010639-f1337b -0.0115 126.874482 -2.30660230E+004 0 0 6 (C2/m) n - 1
REM
REM Run started: Fri, 24 Jul 2020 01:16:01 +0100 in /rds/user/bz240/hpc-work/airss-fw/launch_tmp/launcher_2020-07-24-00-06-00-770184
REM CASTEP 19.11| from code version Version unavailable
REM Functional Perdew Burke Ernzerhof Relativity Koelling-Harmon Dispersion off
REM Cut-off 300.0000 eV Grid scale 1.7500 Gmax 15.5288 1/A FBSC none
REM MP grid 4 3 3 Offset 0.000 0.000 0.000 No. kpts 12 Spacing 0.07
REM Total runtime: 602.35 s
REM Overall efficiency: 88.4 %
REM
REM 2Ag2Se.cell (28ba953ba57c5a31f5193472e679a60a)
REM
REM compiler GCC version 4.8.5 20150623 (Red Hat 4.8.5-39)
REM options -cpp -mtune=generic -march=x86-64 -g -Og
REM COMMAND_LINE
REM seed -572527808 -927812847 2046922842 -921429109 -1712181117 308206794 -754357721 -690357279 1826022232 379778118 -1893786650 -621252130
REM
REM Se 3|2.1|7|7|9|40:41:32(qc=5)
REM Ag 3|2.2|7|7|9|40U:50:41:42(qc=5)
REM 
CELL 1.54180    4.63562    5.51136    5.51136   64.37765   88.20975   88.20975
LATT -1
SFAC Se Ag 
Se     1  0.2689539426842 -0.3084273599330 -0.0182988599330 1.0
Se     1 -0.2689539426842  0.0182988599330  0.3084273599330 1.0
Ag     2 -0.2384182923330 -0.4976796137209  0.3100291772540 1.0
Ag     2  0.2384182923330 -0.3100291772540  0.4976796137209 1.0
Ag     2  0.2384182923330  0.2075511137209 -0.0199006772540 1.0
Ag     2 -0.2384182923330  0.0199006772540 -0.2075511137209 1.0
END
