TITL 2Ag2Se-200724-025347-f1ce37 -0.0024 126.753480 -2.30661618E+004 0 0 6 (C2/m) n - 1
REM
REM Run started: Fri, 24 Jul 2020 02:59:27 +0100 in /scratch/scratch/uccabz1/launch_tmp/launcher_2020-07-24-01-53-45-600382
REM CASTEP 19.11| from code version Version unavailable
REM Functional Perdew Burke Ernzerhof Relativity Koelling-Harmon Dispersion off
REM Cut-off 300.0000 eV Grid scale 1.7500 Gmax 15.5288 1/A FBSC none
REM MP grid 4 4 3 Offset 0.000 0.000 0.000 No. kpts 12 Spacing 0.07
REM Total runtime: 414.03 s
REM Overall efficiency: 81 %
REM
REM 2Ag2Se.cell (28ba953ba57c5a31f5193472e679a60a)
REM
REM compiler GCC version 4.9.2
REM options -cpp -iprefix /scratch/UCL/applications/gcc/4.9.2/bin/../lib/gcc/x86_64-unknown-linux-gnu/4.9.2/ -mtune=corei7 -march=x86-64 -g -O2
REM COMMAND_LINE
REM seed -458916447 1339386847 768143127 -1543100740 -181274393 1583888539 106887265 -414043640 -1913553753 -1943819059 1692941615 -742715505
REM
REM Se 3|2.1|7|7|9|40:41:32(qc=5)
REM Ag 3|2.2|7|7|9|40U:50:41:42(qc=5)
REM 
CELL 1.54180    4.62732    4.70139    5.90141   90.00000   99.14199   90.00000
LATT -1
SFAC Se Ag 
Se     1  0.5000000000000 -0.0000000000000 -0.0000000000000 1.0
Se     1 -0.0000000000000 -0.5000000000000 -0.5000000000000 1.0
Ag     2 -0.0588251246841  0.0004807088106 -0.2605271848191 1.0
Ag     2 -0.4411748753159 -0.4995192911894 -0.2394728151809 1.0
Ag     2  0.0588251246841 -0.0004807088106  0.2605271848191 1.0
Ag     2  0.4411748753159  0.4995192911894  0.2394728151809 1.0
END
