TITL 2Ag2Se-200724-011901-c3786a 0.0832 129.958180 -2.30663565E+004 0 0 6 (R32) n - 1
REM
REM Run started: Fri, 24 Jul 2020 01:33:13 +0100 in /rds/user/bz240/hpc-work/airss-fw/launch_tmp/launcher_2020-07-24-00-18-59-649892
REM CASTEP 19.11| from code version Version unavailable
REM Functional Perdew Burke Ernzerhof Relativity Koelling-Harmon Dispersion off
REM Cut-off 300.0000 eV Grid scale 1.7500 Gmax 15.5288 1/A FBSC none
REM MP grid 3 3 3 Offset 0.000 0.000 0.000 No. kpts 6 Spacing 0.07
REM Total runtime: 902.39 s
REM Overall efficiency: 89.1429 %
REM
REM 2Ag2Se.cell (28ba953ba57c5a31f5193472e679a60a)
REM
REM compiler GCC version 4.8.5 20150623 (Red Hat 4.8.5-39)
REM options -cpp -mtune=generic -march=x86-64 -g -Og
REM COMMAND_LINE
REM seed 292266637 -857169878 903744306 -700433445 -1181854381 1642803958 -821009831 107155716 1714489175 615868369 1942481167 -3163149
REM
REM Se 3|2.1|7|7|9|40:41:32(qc=5)
REM Ag 3|2.2|7|7|9|40U:50:41:42(qc=5)
REM 
CELL 1.54180    5.06618    5.06618    5.06618   88.89657   88.89657   88.89657
LATT -1
SFAC Se Ag 
Se     1  0.0570950414715  0.0570950414715  0.0570950414715 1.0
Se     1 -0.3733463220582 -0.3733463220582 -0.3733463220582 1.0
Ag     2 -0.4459332478899 -0.1572404088582  0.1323467479061 1.0
Ag     2  0.1323467479061 -0.4459332478899 -0.1572404088582 1.0
Ag     2 -0.1572404088582  0.1323467479061 -0.4459332478899 1.0
Ag     2  0.3425838894287  0.3425838894287  0.3425838894287 1.0
END
