TITL 2Ag2Se-200724-022941-9a9eef 0.0013 128.366743 -2.30657871E+004 0 0 6 (P4/mmm) n - 1
REM
REM Run started: Fri, 24 Jul 2020 02:32:01 +0100 in /scratch/scratch/uccabz1/launch_tmp/launcher_2020-07-24-01-29-39-696815
REM CASTEP 19.11| from code version Version unavailable
REM Functional Perdew Burke Ernzerhof Relativity Koelling-Harmon Dispersion off
REM Cut-off 300.0000 eV Grid scale 1.7500 Gmax 15.5288 1/A FBSC none
REM MP grid 4 3 3 Offset 0.000 0.000 0.000 No. kpts 6 Spacing 0.07
REM Total runtime: 181.3 s
REM Overall efficiency: 75.25 %
REM
REM 2Ag2Se.cell (28ba953ba57c5a31f5193472e679a60a)
REM
REM compiler GCC version 4.9.2
REM options -cpp -iprefix /scratch/UCL/applications/gcc/4.9.2/bin/../lib/gcc/x86_64-unknown-linux-gnu/4.9.2/ -mtune=corei7 -march=x86-64 -g -O2
REM COMMAND_LINE
REM seed -1393096967 2022300691 -2015551440 994785040 262935283 -1375309879 -450781280 -6016242 139809608 725834219 -1291625441 -1554708686
REM
REM Se 3|2.1|7|7|9|40:41:32(qc=5)
REM Ag 3|2.2|7|7|9|40U:50:41:42(qc=5)
REM 
CELL 1.54180    3.81233    5.80271    5.80271   90.00000   90.00000   90.00000
LATT -1
SFAC Se Ag 
Se     1  0.4221644000000  0.0000000000000 -0.5000000000000 1.0
Se     1  0.4221644000000 -0.5000000000000  0.0000000000000 1.0
Ag     2 -0.0778356000000  0.2510695742474  0.2489304257526 1.0
Ag     2 -0.0778356000000 -0.2510695742474 -0.2489304257526 1.0
Ag     2 -0.0778356000000  0.2489304257526 -0.2510695742474 1.0
Ag     2 -0.0778356000000 -0.2489304257526  0.2510695742474 1.0
END
