TITL 2Ag2Se-200724-014828-5e5d6c 0.0343 129.054886 -2.30663165E+004 0 0 6 (R32) n - 1
REM
REM Run started: Fri, 24 Jul 2020 01:54:11 +0100 in /rds/user/bz240/hpc-work/airss-fw/launch_tmp/launcher_2020-07-24-00-48-26-779862
REM CASTEP 19.11| from code version Version unavailable
REM Functional Perdew Burke Ernzerhof Relativity Koelling-Harmon Dispersion off
REM Cut-off 300.0000 eV Grid scale 1.7500 Gmax 15.5288 1/A FBSC none
REM MP grid 3 3 3 Offset 0.000 0.000 0.000 No. kpts 6 Spacing 0.07
REM Total runtime: 551.83 s
REM Overall efficiency: 86.4 %
REM
REM 2Ag2Se.cell (28ba953ba57c5a31f5193472e679a60a)
REM
REM compiler GCC version 4.8.5 20150623 (Red Hat 4.8.5-39)
REM options -cpp -mtune=generic -march=x86-64 -g -Og
REM COMMAND_LINE
REM seed -839456916 -92741105 -1822842721 715865359 -68273563 971421438 -286541162 -1333687702 2090874903 -751150809 -1216374361 441113820
REM
REM Se 3|2.1|7|7|9|40:41:32(qc=5)
REM Ag 3|2.2|7|7|9|40U:50:41:42(qc=5)
REM 
CELL 1.54180    5.05593    5.05593    5.05593   88.20106   88.20106   88.20106
LATT -1
SFAC Se Ag 
Se     1  0.4648850157499  0.4648850157499  0.4648850157499 1.0
Se     1 -0.1037492157499 -0.1037492157499 -0.1037492157499 1.0
Ag     2  0.3918388917090 -0.0307030917090 -0.3194321000000 1.0
Ag     2 -0.3194321000000  0.3918388917090 -0.0307030917090 1.0
Ag     2 -0.0307030917090 -0.3194321000000  0.3918388917090 1.0
Ag     2  0.1805679000000  0.1805679000000  0.1805679000000 1.0
END
