TITL 2Ag2Se-200724-013809-593bc8 0.0386 127.958463 -2.30657628E+004 0 0 6 (P4/mmm) n - 1
REM
REM Run started: Fri, 24 Jul 2020 01:42:38 +0100 in /rds/user/bz240/hpc-work/airss-fw/launch_tmp/launcher_2020-07-24-00-38-08-145050
REM CASTEP 19.11| from code version Version unavailable
REM Functional Perdew Burke Ernzerhof Relativity Koelling-Harmon Dispersion off
REM Cut-off 300.0000 eV Grid scale 1.7500 Gmax 15.5288 1/A FBSC none
REM MP grid 4 3 3 Offset 0.000 0.000 0.000 No. kpts 6 Spacing 0.07
REM Total runtime: 278.9 s
REM Overall efficiency: 80.6 %
REM
REM 2Ag2Se.cell (28ba953ba57c5a31f5193472e679a60a)
REM
REM compiler GCC version 4.8.5 20150623 (Red Hat 4.8.5-39)
REM options -cpp -mtune=generic -march=x86-64 -g -Og
REM COMMAND_LINE
REM seed -1572576492 -1515436185 -78755144 175286652 -133837369 -585038469 326561602 1053021260 1409010044 -32027279 87131082 -165972025
REM
REM Se 3|2.1|7|7|9|40:41:32(qc=5)
REM Ag 3|2.2|7|7|9|40U:50:41:42(qc=5)
REM 
CELL 1.54180    3.77605    5.82124    5.82124   90.00000   90.00000   90.00000
LATT -1
SFAC Se Ag 
Se     1  0.0023784000000 -0.5000000000000  0.0000000000000 1.0
Se     1  0.0023784000000  0.0000000000000  0.5000000000000 1.0
Ag     2 -0.4976216000000  0.2500000000000  0.2500000000000 1.0
Ag     2 -0.4976216000000 -0.2500000000000 -0.2500000000000 1.0
Ag     2 -0.4976216000000  0.2500000000000 -0.2500000000000 1.0
Ag     2 -0.4976216000000 -0.2500000000000  0.2500000000000 1.0
END
