TITL 2Ag2Se-200724-010543-523ea4 -0.0297 128.195879 -2.30659433E+004 0 0 6 (P21/c) n - 1
REM
REM Run started: Fri, 24 Jul 2020 01:11:33 +0100 in /rds/user/bz240/hpc-work/airss-fw/launch_tmp/launcher_2020-07-24-00-05-41-307250
REM CASTEP 19.11| from code version Version unavailable
REM Functional Perdew Burke Ernzerhof Relativity Koelling-Harmon Dispersion off
REM Cut-off 300.0000 eV Grid scale 1.7500 Gmax 15.5288 1/A FBSC none
REM MP grid 4 4 3 Offset 0.000 0.000 0.000 No. kpts 12 Spacing 0.07
REM Total runtime: 549.46 s
REM Overall efficiency: 88.4 %
REM
REM 2Ag2Se.cell (28ba953ba57c5a31f5193472e679a60a)
REM
REM compiler GCC version 4.8.5 20150623 (Red Hat 4.8.5-39)
REM options -cpp -mtune=generic -march=x86-64 -g -Og
REM COMMAND_LINE
REM seed 2008024453 264225039 1572923019 -86929639 -1818851645 -1076241628 -1882130975 35288939 803038843 485150048 -57583452 2078397924
REM
REM Se 3|2.1|7|7|9|40:41:32(qc=5)
REM Ag 3|2.2|7|7|9|40U:50:41:42(qc=5)
REM 
CELL 1.54180    4.16612    4.39684    7.04538   96.61683   90.00000   90.00000
LATT -1
SFAC Se Ag 
Se     1  0.2500000000000 -0.1545055000000 -0.0612320000000 1.0
Se     1 -0.2500000000000  0.3454945000000  0.4387680000000 1.0
Ag     2  0.4937149258116  0.8157588115305  0.2806618589237 1.0
Ag     2 -0.4937149258116  0.3157588115305 -0.2193381410763 1.0
Ag     2 -0.0062850741884  0.3752301884695  0.0968741410763 1.0
Ag     2  0.0062850741884 -0.1247698115305 -0.4031258589237 1.0
END
