TITL 2Ag2Se-200724-010743-261676 0.0023 113.512792 -2.30660394E+004 0 0 6 (Cc) n - 1
REM
REM Run started: Fri, 24 Jul 2020 01:28:29 +0100 in /rds/user/bz240/hpc-work/airss-fw/launch_tmp/launcher_2020-07-24-00-07-41-397358
REM CASTEP 19.11| from code version Version unavailable
REM Functional Perdew Burke Ernzerhof Relativity Koelling-Harmon Dispersion off
REM Cut-off 300.0000 eV Grid scale 1.7500 Gmax 15.5288 1/A FBSC none
REM MP grid 3 4 4 Offset 0.000 0.000 0.000 No. kpts 24 Spacing 0.07
REM Total runtime: 1293.65 s
REM Overall efficiency: 90.8571 %
REM
REM 2Ag2Se.cell (28ba953ba57c5a31f5193472e679a60a)
REM
REM compiler GCC version 4.8.5 20150623 (Red Hat 4.8.5-39)
REM options -cpp -mtune=generic -march=x86-64 -g -Og
REM COMMAND_LINE
REM seed -204876821 824313028 975358241 2035436725 -1704317949 276087985 907431524 -1175802354 -1238956692 1819326422 438095138 -544120692
REM
REM Se 3|2.1|7|7|9|40:41:32(qc=5)
REM Ag 3|2.2|7|7|9|40U:50:41:42(qc=5)
REM 
CELL 1.54180    5.37986    4.84597    5.33209   62.97266   79.53775   66.44638
LATT -1
SFAC Se Ag 
Se     1  0.2399522920052 -0.5179899695181  0.2610270714090 1.0
Se     1 -0.2600477079948  0.2430371018909 -0.2610270714090 1.0
Ag     2  0.2546206791605  0.1154698900065 -0.0395581899620 1.0
Ag     2 -0.2453793208395 -0.4240882999555  0.0395581899620 1.0
Ag     2  0.2308634288342 -0.2035916618521 -0.3849672987194 1.0
Ag     2 -0.2691365711658 -0.0885589605715  0.3849672987194 1.0
END
