TITL 2Ag2Se-200724-014434-51ff7d 0.0475 125.333644 -2.30652957E+004 0 0 6 (Pmna) n - 1
REM
REM Run started: Fri, 24 Jul 2020 01:48:30 +0100 in /rds/user/bz240/hpc-work/airss-fw/launch_tmp/launcher_2020-07-24-00-44-32-271784
REM CASTEP 19.11| from code version Version unavailable
REM Functional Perdew Burke Ernzerhof Relativity Koelling-Harmon Dispersion off
REM Cut-off 300.0000 eV Grid scale 1.7500 Gmax 15.5288 1/A FBSC none
REM MP grid 4 4 2 Offset 0.000 0.000 0.000 No. kpts 4 Spacing 0.07
REM Total runtime: 252.56 s
REM Overall efficiency: 79.4 %
REM
REM 2Ag2Se.cell (28ba953ba57c5a31f5193472e679a60a)
REM
REM compiler GCC version 4.8.5 20150623 (Red Hat 4.8.5-39)
REM options -cpp -mtune=generic -march=x86-64 -g -Og
REM COMMAND_LINE
REM seed 1261809637 -1753158586 1995025327 1754104822 63055888 -1668650249 853090712 218802631 34128562 -207596129 -2017562949 -628783768
REM
REM Se 3|2.1|7|7|9|40:41:32(qc=5)
REM Ag 3|2.2|7|7|9|40U:50:41:42(qc=5)
REM 
CELL 1.54180    3.62263    4.63227    7.46878   90.00004   90.00000   90.00000
LATT -1
SFAC Se Ag 
Se     1 -0.2362731000000  0.2500000000000 -0.2500025000000 1.0
Se     1 -0.2362731000000 -0.2500000000000  0.2499975000000 1.0
Ag     2  0.0316579575927  0.2500000000000  0.1036352713445 1.0
Ag     2  0.0316579575927 -0.2500000000000 -0.1036402713445 1.0
Ag     2 -0.5042041575927 -0.2500000000000 -0.3963647286555 1.0
Ag     2 -0.5042041575927  0.2500000000000  0.3963597286555 1.0
END
