TITL 2Ag2Se-200724-015859-9f9f03 0.0072 129.236838 -2.30658388E+004 0 0 6 (P4/mmm) n - 1
REM
REM Run started: Fri, 24 Jul 2020 02:05:03 +0100 in /rds/user/bz240/hpc-work/airss-fw/launch_tmp/launcher_2020-07-24-00-58-58-208358
REM CASTEP 19.11| from code version Version unavailable
REM Functional Perdew Burke Ernzerhof Relativity Koelling-Harmon Dispersion off
REM Cut-off 300.0000 eV Grid scale 1.7500 Gmax 15.5288 1/A FBSC none
REM MP grid 4 3 3 Offset 0.000 0.000 0.000 No. kpts 8 Spacing 0.07
REM Total runtime: 456.52 s
REM Overall efficiency: 86.2 %
REM
REM 2Ag2Se.cell (28ba953ba57c5a31f5193472e679a60a)
REM
REM compiler GCC version 4.8.5 20150623 (Red Hat 4.8.5-39)
REM options -cpp -mtune=generic -march=x86-64 -g -Og
REM COMMAND_LINE
REM seed -987936926 -1296572497 925487806 1390823318 -1879066183 -1624379989 -52155896 -248365398 -1971532520 353237887 -1169849717 -370945718
REM
REM Se 3|2.1|7|7|9|40:41:32(qc=5)
REM Ag 3|2.2|7|7|9|40U:50:41:42(qc=5)
REM 
CELL 1.54180    3.71957    5.86152    5.92766   90.00000   90.00000   90.00000
LATT -1
SFAC Se Ag 
Se     1 -0.5000000000000 -0.0000000000000 -0.1175088043610 1.0
Se     1 -0.5000000000000 -0.5000000000000  0.3824911956390 1.0
Ag     2  0.0000000000000  0.2520584125929  0.1293744521805 1.0
Ag     2  0.0000000000000 -0.2520584125929  0.1293744521805 1.0
Ag     2 -0.0000000000000  0.2479415874071 -0.3706255478195 1.0
Ag     2 -0.0000000000000 -0.2479415874071 -0.3706255478195 1.0
END
