TITL 2Ag2Se-200724-022916-12d4b9 -0.0092 129.993719 -2.30663413E+004 0 0 6 (R32) n - 1
REM
REM Run started: Fri, 24 Jul 2020 02:47:00 +0100 in /scratch/scratch/uccabz1/launch_tmp/launcher_2020-07-24-01-29-14-775876
REM CASTEP 19.11| from code version Version unavailable
REM Functional Perdew Burke Ernzerhof Relativity Koelling-Harmon Dispersion off
REM Cut-off 300.0000 eV Grid scale 1.7500 Gmax 15.5288 1/A FBSC none
REM MP grid 3 3 3 Offset 0.000 0.000 0.000 No. kpts 6 Spacing 0.07
REM Total runtime: 1099.85 s
REM Overall efficiency: 83.2 %
REM
REM 2Ag2Se.cell (28ba953ba57c5a31f5193472e679a60a)
REM
REM compiler GCC version 4.9.2
REM options -cpp -iprefix /scratch/UCL/applications/gcc/4.9.2/bin/../lib/gcc/x86_64-unknown-linux-gnu/4.9.2/ -mtune=corei7 -march=x86-64 -g -O2
REM COMMAND_LINE
REM seed 1187189655 -381979476 1645585776 240978312 -361081745 1174668813 -2126753123 -430264736 -478747464 -883844488 445016198 111160377
REM
REM Se 3|2.1|7|7|9|40:41:32(qc=5)
REM Ag 3|2.2|7|7|9|40U:50:41:42(qc=5)
REM 
CELL 1.54180    5.06574    5.06574    5.06574   90.18068   90.18068   90.18068
LATT -1
SFAC Se Ag 
Se     1 -0.3719127839726 -0.3719127839726 -0.3719127839726 1.0
Se     1  0.2157311227983  0.2157311227983  0.2157311227983 1.0
Ag     2  0.1228232587631  0.4232383429595 -0.2764661568439 1.0
Ag     2  0.4232383429594 -0.2764661568439  0.1228232587631 1.0
Ag     2 -0.2764661568439  0.1228232587631  0.4232383429595 1.0
Ag     2 -0.0781650837043 -0.0781650837043 -0.0781650837043 1.0
END
