TITL 2Ag2Se-200724-030649-e92aa9 0.0516 126.483110 -2.30655063E+004 0 0 6 (R3) n - 1
REM
REM Run started: Fri, 24 Jul 2020 03:16:21 +0100 in /rds/user/bz240/hpc-work/airss-fw/launch_tmp/launcher_2020-07-24-02-06-47-081093
REM CASTEP 19.11| from code version Version unavailable
REM Functional Perdew Burke Ernzerhof Relativity Koelling-Harmon Dispersion off
REM Cut-off 300.0000 eV Grid scale 1.7500 Gmax 15.5288 1/A FBSC none
REM MP grid 4 4 4 Offset 0.000 0.000 0.000 No. kpts 12 Spacing 0.07
REM Total runtime: 672.69 s
REM Overall efficiency: 90.8 %
REM
REM 2Ag2Se.cell (28ba953ba57c5a31f5193472e679a60a)
REM
REM compiler GCC version 4.8.5 20150623 (Red Hat 4.8.5-39)
REM options -cpp -mtune=generic -march=x86-64 -g -Og
REM COMMAND_LINE
REM seed -72930872 670532889 -120120405 -276390257 1878345782 536242175 -101384955 -1129348943 589169041 -203268784 -968992198 -1426422447
REM
REM Se 3|2.1|7|7|9|40:41:32(qc=5)
REM Ag 3|2.2|7|7|9|40U:50:41:42(qc=5)
REM 
CELL 1.54180    5.57180    5.57180    5.57180   61.51905   61.51905   61.51905
LATT -1
SFAC Se Ag 
Se     1  0.2837445405271  0.2837445405271  0.2837445405271 1.0
Se     1 -0.2464110399296 -0.2464110399296 -0.2464110399296 1.0
Ag     2 -0.2170586128552  0.2668284172073  0.3006370336020 1.0
Ag     2  0.2668284172073  0.3006370336020 -0.2170586128552 1.0
Ag     2  0.3006370336020 -0.2170586128552  0.2668284172073 1.0
Ag     2 -0.0565304385517 -0.0565304385517 -0.0565304385517 1.0
END
