TITL 4Ag2Se-200724-073052-16ab4d -0.0436 243.087508 -4.61324321E+004 0 0 12 (C2) n - 1
REM
REM Run started: Fri, 24 Jul 2020 10:36:08 +0100 in /scratch/scratch/uccabz1/launch_tmp/launcher_2020-07-24-06-30-50-555273
REM CASTEP 19.11| from code version Version unavailable
REM Functional Perdew Burke Ernzerhof Relativity Koelling-Harmon Dispersion off
REM Cut-off 300.0000 eV Grid scale 1.7500 Gmax 15.5288 1/A FBSC none
REM MP grid 3 3 3 Offset 0.000 0.000 0.000 No. kpts 10 Spacing 0.07
REM Total runtime: 11421.6 s
REM Overall efficiency: 96.9167 %
REM
REM 4Ag2Se.cell (6404a18c6b5dc90313b5c56acf317f23)
REM
REM compiler GCC version 4.9.2
REM options -cpp -iprefix /scratch/UCL/applications/gcc/4.9.2/bin/../lib/gcc/x86_64-unknown-linux-gnu/4.9.2/ -mtune=corei7 -march=x86-64 -g -O2
REM COMMAND_LINE
REM seed 948648698 -207964018 -1358369943 -26658226 1692383678 -623429121 1832486317 2144120365 1912860149 -1748780036 -1915840382 1307328395
REM
REM Se 3|2.1|7|7|9|40:41:32(qc=5)
REM Ag 3|2.2|7|7|9|40U:50:41:42(qc=5)
REM 
CELL 1.54180    6.07921    7.38548    7.32286  122.20015   90.00000  114.30318
LATT -1
SFAC Se Ag 
Se     1  0.1197890254847  0.2457736230662 -0.1833083093940 1.0
Se     1 -0.1259845975815 -0.2457736230662  0.1833083093940 1.0
Se     1 -0.3747313721402  0.2472299719872  0.3885542385384 1.0
Se     1  0.3780386558726 -0.2472299719872 -0.3885542385384 1.0
Ag     2  0.4250175936805 -0.2268912211840  0.2388668799298 1.0
Ag     2 -0.3480911851355  0.2268912211840 -0.2388668799298 1.0
Ag     2 -0.1300592275378 -0.2426975677912 -0.4260390340255 1.0
Ag     2  0.1126383402534  0.2426975677912  0.4260390340255 1.0
Ag     2  0.1211106411623 -0.2681275369789 -0.1097476312805 1.0
Ag     2  0.3892381781413  0.2681275369790  0.1097476312805 1.0
Ag     2 -0.0462543428479  0.3911820665041  0.1839878768710 1.0
Ag     2 -0.4374364093520 -0.3911820665041 -0.1839878768709 1.0
END
