TITL 4Ag2Se-200724-062310-0de023 0.0637 247.665219 -4.61322565E+004 0 0 12 (Cc) n - 1
REM
REM Run started: Fri, 24 Jul 2020 08:17:48 +0100 in /rds/user/bz240/hpc-work/airss-fw/launch_tmp/launcher_2020-07-24-05-23-08-730007
REM CASTEP 19.11| from code version Version unavailable
REM Functional Perdew Burke Ernzerhof Relativity Koelling-Harmon Dispersion off
REM Cut-off 300.0000 eV Grid scale 1.7500 Gmax 15.5288 1/A FBSC none
REM MP grid 3 3 3 Offset 0.000 0.000 0.000 No. kpts 10 Spacing 0.07
REM Total runtime: 7123.55 s
REM Overall efficiency: 75.6667 %
REM
REM 4Ag2Se.cell (6404a18c6b5dc90313b5c56acf317f23)
REM
REM compiler GCC version 4.8.5 20150623 (Red Hat 4.8.5-39)
REM options -cpp -mtune=generic -march=x86-64 -g -Og
REM COMMAND_LINE
REM seed 1000991860 1152017296 146693708 -1534912581 -571055816 -1291501597 -354846563 599689959 -954981296 -975111090 1079931748 -1259296046
REM
REM Se 3|2.1|7|7|9|40:41:32(qc=5)
REM Ag 3|2.2|7|7|9|40U:50:41:42(qc=5)
REM 
CELL 1.54180    5.80591    6.29406    7.47285   65.09420   89.71601   89.32562
LATT -1
SFAC Se Ag 
Se     1 -0.4176646168410 -0.2663963930990  0.2881717409011 1.0
Se     1  0.0823353831590  0.5217753478021 -0.2881717409011 1.0
Se     1  0.0831058316953  0.1786930958780  0.2554734731565 1.0
Se     1 -0.4168941683047 -0.0658334309655 -0.2554734731565 1.0
Ag     2 -0.1991405169056  0.5395395614818  0.0668478610182 1.0
Ag     2  0.3008594830944  0.1063874225000 -0.0668478610182 1.0
Ag     2 -0.1928272154785  0.1021986292785 -0.0170413762152 1.0
Ag     2  0.3071727845215 -0.4148427469367  0.0170413762152 1.0
Ag     2 -0.0604742789201  0.2179385425167 -0.4248555055151 1.0
Ag     2  0.4395257210799  0.2930830370017  0.4248555055151 1.0
Ag     2 -0.4152434035502 -0.4720803420575 -0.3103095813425 1.0
Ag     2  0.0847565964498 -0.2823899234000  0.3103095813425 1.0
END
