TITL 4Ag2Se_TETRA-200724-180653-7fda76 0.0066 248.962692 -4.61309996E+004 0 0 12 (C2/c) n - 1
REM
REM Run started: Fri, 24 Jul 2020 19:18:27 +0100 in /scratch/scratch/uccabz1/launch_tmp/launcher_2020-07-24-17-06-51-847534
REM CASTEP 19.11| from code version Version unavailable
REM Functional Perdew Burke Ernzerhof Relativity Koelling-Harmon Dispersion off
REM Cut-off 300.0000 eV Grid scale 1.7500 Gmax 15.5288 1/A FBSC none
REM MP grid 3 3 3 Offset 0.000 0.000 0.000 No. kpts 10 Spacing 0.07
REM Total runtime: 4765.71 s
REM Overall efficiency: 95.1667 %
REM
REM 4Ag2Se_TETRA.cell (4020362940262d3df87d4014b41eb05e)
REM
REM compiler GCC version 4.9.2
REM options -cpp -iprefix /scratch/UCL/applications/gcc/4.9.2/bin/../lib/gcc/x86_64-unknown-linux-gnu/4.9.2/ -mtune=corei7 -march=x86-64 -g -O2
REM COMMAND_LINE
REM seed 1336836605 -371996916 36525741 840284538 -2135507473 1085602565 -1905099470 -1573799924 -867908196 -986361800 638518619 -448595997
REM
REM Se 3|2.1|7|7|9|40:41:32(qc=5)
REM Ag 3|2.2|7|7|9|40U:50:41:42(qc=5)
REM 
CELL 1.54180    6.69713    6.10339    6.10339   89.78213   87.39857   87.39857
LATT -1
SFAC Se Ag 
Se     1 -0.2570675167120  0.1411783664278  0.3879907429344 1.0
Se     1 -0.2429324832880 -0.3879907429344 -0.1411783664278 1.0
Se     1  0.2570675167120 -0.1411783664278 -0.3879907429344 1.0
Se     1  0.2429324832880  0.3879907429344  0.1411783664278 1.0
Ag     2  0.0816733688401  0.2665183279970 -0.4447171629811 1.0
Ag     2  0.4183266311599  0.4447171629811 -0.2665183279970 1.0
Ag     2 -0.0816733688401 -0.2665183279970  0.4447171629811 1.0
Ag     2 -0.4183266311599 -0.4447171629811  0.2665183279970 1.0
Ag     2 -0.4116152982826  0.0106412694135 -0.2160792199102 1.0
Ag     2 -0.0883847017174  0.2160792199102 -0.0106412694135 1.0
Ag     2  0.4116152982826 -0.0106412694135  0.2160792199102 1.0
Ag     2  0.0883847017174 -0.2160792199102  0.0106412694135 1.0
END
