TITL 4Ag2Se_TETRA-200724-175101-a57d58 0.0022 246.351964 -4.61318810E+004 0 0 12 (Pc) n - 1
REM
REM Run started: Fri, 24 Jul 2020 18:58:01 +0100 in /scratch/scratch/uccabz1/launch_tmp/launcher_2020-07-24-16-50-59-533136
REM CASTEP 19.11| from code version Version unavailable
REM Functional Perdew Burke Ernzerhof Relativity Koelling-Harmon Dispersion off
REM Cut-off 300.0000 eV Grid scale 1.7500 Gmax 15.5288 1/A FBSC none
REM MP grid 3 3 3 Offset 0.000 0.000 0.000 No. kpts 10 Spacing 0.07
REM Total runtime: 4448.33 s
REM Overall efficiency: 94.4167 %
REM
REM 4Ag2Se_TETRA.cell (4020362940262d3df87d4014b41eb05e)
REM
REM compiler GCC version 4.9.2
REM options -cpp -iprefix /scratch/UCL/applications/gcc/4.9.2/bin/../lib/gcc/x86_64-unknown-linux-gnu/4.9.2/ -mtune=corei7 -march=x86-64 -g -O2
REM COMMAND_LINE
REM seed 55988746 -1479588661 -206660180 2136671630 -754855766 -763096645 -1614962311 -837291556 389804748 -554509976 -1410592257 194469758
REM
REM Se 3|2.1|7|7|9|40:41:32(qc=5)
REM Ag 3|2.2|7|7|9|40U:50:41:42(qc=5)
REM 
CELL 1.54180    6.02129    5.96113    6.86343   90.00000   90.22973   90.00000
LATT -1
SFAC Se Ag 
Se     1 -0.2219858251587  0.3651148874844  0.0332089332046 1.0
Se     1 -0.2219858251587 -0.3651148874844 -0.4667910667954 1.0
Se     1  0.2909579500904  0.2570820132187  0.3778179882606 1.0
Se     1  0.2909579500904 -0.2570820132187 -0.1221820117394 1.0
Ag     2 -0.2857385434172  0.0843327841915  0.3250875069251 1.0
Ag     2 -0.2857385434172 -0.0843327841915 -0.1749124930749 1.0
Ag     2 -0.0164023252811  0.2459142395237 -0.3585915061011 1.0
Ag     2 -0.0164023252811 -0.2459142395237  0.1414084938989 1.0
Ag     2  0.1615938648942  0.1691926755568  0.0083771494704 1.0
Ag     2  0.1615938648942 -0.1691926755568 -0.4916228505296 1.0
Ag     2  0.4896032788724 -0.3273684638143  0.2449054282404 1.0
Ag     2  0.4896032788724  0.3273684638143 -0.2550945717596 1.0
END
