TITL 4Ag2Se_TETRA-200724-181817-cd7bf8 0.0017 260.574636 -4.61325313E+004 0 0 12 (R3) n - 1
REM
REM Run started: Fri, 24 Jul 2020 19:04:25 +0100 in /scratch/scratch/uccabz1/launch_tmp/launcher_2020-07-24-17-18-15-659776
REM CASTEP 19.11| from code version Version unavailable
REM Functional Perdew Burke Ernzerhof Relativity Koelling-Harmon Dispersion off
REM Cut-off 300.0000 eV Grid scale 1.7500 Gmax 15.5288 1/A FBSC none
REM MP grid 3 3 3 Offset 0.000 0.000 0.000 No. kpts 6 Spacing 0.07
REM Total runtime: 3060.18 s
REM Overall efficiency: 93.1667 %
REM
REM 4Ag2Se_TETRA.cell (4020362940262d3df87d4014b41eb05e)
REM
REM compiler GCC version 4.9.2
REM options -cpp -iprefix /scratch/UCL/applications/gcc/4.9.2/bin/../lib/gcc/x86_64-unknown-linux-gnu/4.9.2/ -mtune=corei7 -march=x86-64 -g -O2
REM COMMAND_LINE
REM seed -656211426 -496919214 -157973847 147961487 1374128917 197294648 -170159563 402416121 1307285690 -547321075 1537086182 1114283658
REM
REM Se 3|2.1|7|7|9|40:41:32(qc=5)
REM Ag 3|2.2|7|7|9|40U:50:41:42(qc=5)
REM 
CELL 1.54180    6.38762    6.38762    6.38762   90.65184   90.65184   90.65184
LATT -1
SFAC Se Ag 
Se     1 -0.0477645142498  0.4136466138311 -0.0604569119554 1.0
Se     1 -0.0604569119554 -0.0477645142498  0.4136466138311 1.0
Se     1  0.4136466138311 -0.0604569119554 -0.0477645142498 1.0
Se     1  0.4570614087299  0.4570614087299  0.4570614087299 1.0
Ag     2  0.1790786395388 -0.3309346618559 -0.3003842366762 1.0
Ag     2 -0.3003842366762  0.1790786395388 -0.3309346618559 1.0
Ag     2 -0.3309346618559 -0.3003842366762  0.1790786395388 1.0
Ag     2 -0.3703016589716  0.2368823157698  0.1545775115250 1.0
Ag     2  0.1545775115250 -0.3703016589716  0.2368823157698 1.0
Ag     2  0.2368823157698  0.1545775115250 -0.3703016589716 1.0
Ag     2 -0.2850386362276 -0.2850386362276 -0.2850386362276 1.0
Ag     2 -0.0137935694581 -0.0137935694581 -0.0137935694581 1.0
END
