TITL 4Ag2Se_TETRA-200724-160715-05c8f6 -0.0317 249.850873 -4.61308172E+004 0 0 12 (C2/c) n - 1
REM
REM Run started: Fri, 24 Jul 2020 17:23:45 +0100 in /scratch/scratch/uccabz1/launch_tmp/launcher_2020-07-24-15-07-13-390149
REM CASTEP 19.11| from code version Version unavailable
REM Functional Perdew Burke Ernzerhof Relativity Koelling-Harmon Dispersion off
REM Cut-off 300.0000 eV Grid scale 1.7500 Gmax 15.5288 1/A FBSC none
REM MP grid 3 3 3 Offset 0.000 0.000 0.000 No. kpts 10 Spacing 0.07
REM Total runtime: 5073.26 s
REM Overall efficiency: 95.4167 %
REM
REM 4Ag2Se_TETRA.cell (4020362940262d3df87d4014b41eb05e)
REM
REM compiler GCC version 4.9.2
REM options -cpp -iprefix /scratch/UCL/applications/gcc/4.9.2/bin/../lib/gcc/x86_64-unknown-linux-gnu/4.9.2/ -mtune=corei7 -march=x86-64 -g -O2
REM COMMAND_LINE
REM seed -521590183 1596090673 166572129 1701136129 -883614356 709327960 -1573865950 1859080308 -1997602562 1550004546 -182400618 -412334394
REM
REM Se 3|2.1|7|7|9|40:41:32(qc=5)
REM Ag 3|2.2|7|7|9|40U:50:41:42(qc=5)
REM 
CELL 1.54180    6.21852    6.48263    6.21852   86.89327   88.24711   86.89327
LATT -1
SFAC Se Ag 
Se     1 -0.2145754930418 -0.0309681219386 -0.2025076627495 1.0
Se     1  0.2025076627495  0.0309681219386  0.2145754930418 1.0
Se     1 -0.0245892069582 -0.4690318780614  0.4416723627495 1.0
Se     1 -0.4416723627495  0.4690318780614  0.0245892069582 1.0
Ag     2  0.1669146500964 -0.1547511867267 -0.3843501896426 1.0
Ag     2  0.3843501896426  0.1547511867267 -0.1669146500964 1.0
Ag     2  0.3764851103574  0.3452488132733  0.4060793500964 1.0
Ag     2 -0.4060793500964 -0.3452488132733 -0.3764851103574 1.0
Ag     2  0.1615058109095 -0.3450811733553  0.0599269399874 1.0
Ag     2 -0.0599269399874  0.3450811733553 -0.1615058109095 1.0
Ag     2 -0.4006705109095 -0.1549188266447  0.1792377600126 1.0
Ag     2 -0.1792377600126  0.1549188266447  0.4006705109095 1.0
END
