TITL 4Ag2Se_TETRA-200724-162248-8692e6 0.0456 240.060734 -4.61313659E+004 0 0 12 (C2/c) n - 1
REM
REM Run started: Fri, 24 Jul 2020 17:26:22 +0100 in /scratch/scratch/uccabz1/launch_tmp/launcher_2020-07-24-15-22-46-502091
REM CASTEP 19.11| from code version Version unavailable
REM Functional Perdew Burke Ernzerhof Relativity Koelling-Harmon Dispersion off
REM Cut-off 300.0000 eV Grid scale 1.7500 Gmax 15.5288 1/A FBSC none
REM MP grid 3 3 3 Offset 0.000 0.000 0.000 No. kpts 10 Spacing 0.07
REM Total runtime: 4219.55 s
REM Overall efficiency: 94.5833 %
REM
REM 4Ag2Se_TETRA.cell (4020362940262d3df87d4014b41eb05e)
REM
REM compiler GCC version 4.9.2
REM options -cpp -iprefix /scratch/UCL/applications/gcc/4.9.2/bin/../lib/gcc/x86_64-unknown-linux-gnu/4.9.2/ -mtune=corei7 -march=x86-64 -g -O2
REM COMMAND_LINE
REM seed -125572091 -1225154130 1272052847 1312787743 1181944004 -91315042 77536486 1616705041 318525862 1703931491 1161979336 1504673860
REM
REM Se 3|2.1|7|7|9|40:41:32(qc=5)
REM Ag 3|2.2|7|7|9|40U:50:41:42(qc=5)
REM 
CELL 1.54180    6.05912    6.05912    6.74685   84.53231   84.53231  101.38393
LATT -1
SFAC Se Ag 
Se     1 -0.2224467520747 -0.2793312736225  0.0000191890510 1.0
Se     1  0.2793312736225  0.2224467520747 -0.0000191890510 1.0
Se     1  0.0118699520747  0.4899080736225 -0.5000191890510 1.0
Se     1 -0.4899080736225 -0.0118699520747  0.5000191890510 1.0
Ag     2 -0.0941570621840 -0.1096920903384  0.3427892162837 1.0
Ag     2  0.1096920903384  0.0941570621840 -0.3427892162837 1.0
Ag     2 -0.3202688903384  0.1164197378160 -0.1572107837163 1.0
Ag     2 -0.1164197378160  0.3202688903384  0.1572107837163 1.0
Ag     2 -0.4063167666486 -0.4633820881659 -0.3167189073768 1.0
Ag     2  0.4633820881659  0.4063167666486  0.3167189073768 1.0
Ag     2  0.3260411118341 -0.1957399666486  0.1832810926232 1.0
Ag     2  0.1957399666486 -0.3260411118341 -0.1832810926232 1.0
END
