TITL 4Ag2Se_TETRA-200724-134253-cbd43a 0.0163 256.886344 -4.61308492E+004 0 0 12 (C2) n - 1
REM
REM Run started: Fri, 24 Jul 2020 14:40:50 +0100 in /rds/user/bz240/hpc-work/airss-fw/launch_tmp/launcher_2020-07-24-12-42-50-739389
REM CASTEP 19.11| from code version Version unavailable
REM Functional Perdew Burke Ernzerhof Relativity Koelling-Harmon Dispersion off
REM Cut-off 300.0000 eV Grid scale 1.7500 Gmax 15.5288 1/A FBSC none
REM MP grid 3 3 3 Offset 0.000 0.000 0.000 No. kpts 10 Spacing 0.07
REM Total runtime: 3808.94 s
REM Overall efficiency: 75.0833 %
REM
REM 4Ag2Se_TETRA.cell (4020362940262d3df87d4014b41eb05e)
REM
REM compiler GCC version 4.8.5 20150623 (Red Hat 4.8.5-39)
REM options -cpp -mtune=generic -march=x86-64 -g -Og
REM COMMAND_LINE
REM seed -1421726415 59754550 -223667077 1184519557 1474358103 -791313699 -2032627884 -1072431973 -1446415253 724084063 457619954 -1558807963
REM
REM Se 3|2.1|7|7|9|40:41:32(qc=5)
REM Ag 3|2.2|7|7|9|40U:50:41:42(qc=5)
REM 
CELL 1.54180    6.35858    6.46937    6.35858   90.01253   79.14495   90.01253
LATT -1
SFAC Se Ag 
Se     1  0.1031892001819  0.2605855224031 -0.3567923525799 1.0
Se     1  0.3567923525799 -0.2605855224031 -0.1031892001819 1.0
Se     1 -0.1347801059696 -0.2577396012142  0.3860554752877 1.0
Se     1 -0.3860554752877  0.2577396012142  0.1347801059696 1.0
Ag     2  0.2939583922038  0.1532286198217 -0.0483182188215 1.0
Ag     2  0.0483182188215 -0.1532286198217 -0.2939583922038 1.0
Ag     2 -0.3395870858133  0.0515922299681 -0.3707902048917 1.0
Ag     2  0.3707902048917 -0.0515922299681  0.3395870858133 1.0
Ag     2 -0.3630112398950  0.4886962649511 -0.3356726789729 1.0
Ag     2  0.3356726789729 -0.4886962649511  0.3630112398950 1.0
Ag     2 -0.2907465574259 -0.2950004618195  0.0458817832602 1.0
Ag     2 -0.0458817832602  0.2950004618195  0.2907465574259 1.0
END
