TITL 4Ag2Se_TETRA-200724-171930-0ba4a4 0.0049 244.714728 -4.61322574E+004 0 0 12 (P-1) n - 1
REM
REM Run started: Fri, 24 Jul 2020 18:29:54 +0100 in /rds/user/bz240/hpc-work/airss-fw/launch_tmp/launcher_2020-07-24-16-19-27-945424
REM CASTEP 19.11| from code version Version unavailable
REM Functional Perdew Burke Ernzerhof Relativity Koelling-Harmon Dispersion off
REM Cut-off 300.0000 eV Grid scale 1.7500 Gmax 15.5288 1/A FBSC none
REM MP grid 3 4 2 Offset 0.000 0.000 0.000 No. kpts 12 Spacing 0.07
REM Total runtime: 4655.65 s
REM Overall efficiency: 96.25 %
REM
REM 4Ag2Se_TETRA.cell (4020362940262d3df87d4014b41eb05e)
REM
REM compiler GCC version 4.8.5 20150623 (Red Hat 4.8.5-39)
REM options -cpp -mtune=generic -march=x86-64 -g -Og
REM COMMAND_LINE
REM seed 583294941 1646818018 -2127575744 1521871010 -599569339 -1791850187 -1692404925 -2095159822 -274620541 -1237368277 1045473113 1896628645
REM
REM Se 3|2.1|7|7|9|40:41:32(qc=5)
REM Ag 3|2.2|7|7|9|40U:50:41:42(qc=5)
REM 
CELL 1.54180    5.37078    4.66358    9.77740   90.09823   92.07927   89.28441
LATT -1
SFAC Se Ag 
Se     1 -0.2825533561527  0.2447260988036  0.4022249436168 1.0
Se     1  0.2825533561527 -0.2447260988036 -0.4022249436168 1.0
Se     1 -0.1273868758571  0.2630042056027 -0.1460429753532 1.0
Se     1  0.1273868758571 -0.2630042056027  0.1460429753532 1.0
Ag     2  0.4379646977296  0.2505188761060 -0.2702675379474 1.0
Ag     2 -0.4379646977296 -0.2505188761060  0.2702675379474 1.0
Ag     2  0.2128658910784  0.2529135183030  0.4495684394133 1.0
Ag     2 -0.2128658910784 -0.2529135183030 -0.4495684394133 1.0
Ag     2  0.1649224151138 -0.2449468198675 -0.1461219003871 1.0
Ag     2 -0.1649224151138  0.2449468198675  0.1461219003871 1.0
Ag     2 -0.3385225438125 -0.2503166755133 -0.0225267593094 1.0
Ag     2  0.3385225438125  0.2503166755133  0.0225267593094 1.0
END
