TITL 4Ag2Se-200724-032911-3b128c 0.0789 243.334114 -4.61324715E+004 0 0 12 (Pca21) n - 1
REM
REM Run started: Fri, 24 Jul 2020 03:56:11 +0100 in /rds/user/bz240/hpc-work/airss-fw/launch_tmp/launcher_2020-07-24-02-29-09-740487
REM CASTEP 19.11| from code version Version unavailable
REM Functional Perdew Burke Ernzerhof Relativity Koelling-Harmon Dispersion off
REM Cut-off 300.0000 eV Grid scale 1.7500 Gmax 15.5288 1/A FBSC none
REM MP grid 3 3 3 Offset 0.000 0.000 0.000 No. kpts 8 Spacing 0.07
REM Total runtime: 1816.88 s
REM Overall efficiency: 94 %
REM
REM 4Ag2Se.cell (6404a18c6b5dc90313b5c56acf317f23)
REM
REM compiler GCC version 4.8.5 20150623 (Red Hat 4.8.5-39)
REM options -cpp -mtune=generic -march=x86-64 -g -Og
REM COMMAND_LINE
REM seed -1809410544 -1465725787 1619363387 -1600082451 1794022018 -977616225 1479424730 -838572646 1809205420 981125423 -1404190442 -957144002
REM
REM Se 3|2.1|7|7|9|40:41:32(qc=5)
REM Ag 3|2.2|7|7|9|40U:50:41:42(qc=5)
REM 
CELL 1.54180    5.02636    6.95108    6.96461   90.00000   90.00000   90.00000
LATT -1
SFAC Se Ag 
Se     1 -0.0820043022092  0.2402665339218  0.2468841628382 1.0
Se     1  0.0820043022092 -0.2402665339218 -0.2531158371618 1.0
Se     1  0.4179956977908 -0.2402665339218  0.2468841628382 1.0
Se     1 -0.4179956977908  0.2402665339218 -0.2531158371618 1.0
Ag     2 -0.4087045481056 -0.1267075253866 -0.4049899063880 1.0
Ag     2  0.4087045481056  0.1267075253866  0.0950100936120 1.0
Ag     2  0.0912954518944  0.1267075253866 -0.4049899063880 1.0
Ag     2 -0.0912954518944 -0.1267075253866  0.0950100936120 1.0
Ag     2  0.0654430646430  0.4037723389070 -0.0830408564502 1.0
Ag     2 -0.0654430646430 -0.4037723389070  0.4169591435498 1.0
Ag     2 -0.4345569353570 -0.4037723389070 -0.0830408564502 1.0
Ag     2  0.4345569353570  0.4037723389070  0.4169591435498 1.0
END
