TITL 4Ag2Se-200724-074915-8f00b1 0.0126 239.072086 -4.61321979E+004 0 0 12 (Pbcm) n - 1
REM
REM Run started: Fri, 24 Jul 2020 08:52:32 +0100 in /scratch/scratch/uccabz1/launch_tmp/launcher_2020-07-24-06-49-13-283723
REM CASTEP 19.11| from code version Version unavailable
REM Functional Perdew Burke Ernzerhof Relativity Koelling-Harmon Dispersion off
REM Cut-off 300.0000 eV Grid scale 1.7500 Gmax 15.5288 1/A FBSC none
REM MP grid 4 3 2 Offset 0.000 0.000 0.000 No. kpts 8 Spacing 0.07
REM Total runtime: 4912.29 s
REM Overall efficiency: 96.6667 %
REM
REM 4Ag2Se.cell (6404a18c6b5dc90313b5c56acf317f23)
REM
REM compiler GCC version 4.9.2
REM options -cpp -iprefix /scratch/UCL/applications/gcc/4.9.2/bin/../lib/gcc/x86_64-unknown-linux-gnu/4.9.2/ -mtune=corei7 -march=x86-64 -g -O2
REM COMMAND_LINE
REM seed 539219846 -1770147276 -854082380 -1816314943 -789990435 -2080631581 -285045196 471304056 -54325853 -302817218 1267317026 -1154348474
REM
REM Se 3|2.1|7|7|9|40:41:32(qc=5)
REM Ag 3|2.2|7|7|9|40U:50:41:42(qc=5)
REM 
CELL 1.54180    4.35875    6.57353    8.34389   90.00000   89.98751   90.00000
LATT -1
SFAC Se Ag 
Se     1  0.2499985657422  0.4090006882968  0.1832720512645 1.0
Se     1 -0.2499985657422  0.4090006882968 -0.1832720512645 1.0
Se     1  0.2498882859762 -0.0229518227839 -0.3167927951754 1.0
Se     1 -0.2498882859762 -0.0229518227839  0.3167927951754 1.0
Ag     2  0.2498866346702  0.0017703855530  0.1122412602362 1.0
Ag     2 -0.2498866346702  0.0017703855530 -0.1122412602362 1.0
Ag     2 -0.2499311382921 -0.2737181487114 -0.3914617956692 1.0
Ag     2  0.2499311382921 -0.2737181487114  0.3914617956692 1.0
Ag     2 -0.2498633968026  0.3841234408413  0.3878620482416 1.0
Ag     2  0.2498633968026  0.3841234408413 -0.3878620482416 1.0
Ag     2  0.2498942314514 -0.3404085431958 -0.1085536944901 1.0
Ag     2 -0.2498942314514 -0.3404085431958  0.1085536944901 1.0
END
