TITL 4Ag2Se-200724-031556-bca586 0.0456 236.220373 -4.61326630E+004 0 0 12 (P212121) n - 1
REM
REM Run started: Fri, 24 Jul 2020 03:36:02 +0100 in /rds/user/bz240/hpc-work/airss-fw/launch_tmp/launcher_2020-07-24-02-15-54-572726
REM CASTEP 19.11| from code version Version unavailable
REM Functional Perdew Burke Ernzerhof Relativity Koelling-Harmon Dispersion off
REM Cut-off 300.0000 eV Grid scale 1.7500 Gmax 15.5288 1/A FBSC none
REM MP grid 4 3 2 Offset 0.000 0.000 0.000 No. kpts 4 Spacing 0.07
REM Total runtime: 1265.1 s
REM Overall efficiency: 92.6667 %
REM
REM 4Ag2Se.cell (6404a18c6b5dc90313b5c56acf317f23)
REM
REM compiler GCC version 4.8.5 20150623 (Red Hat 4.8.5-39)
REM options -cpp -mtune=generic -march=x86-64 -g -Og
REM COMMAND_LINE
REM seed 126147297 -1834566971 -2140828663 -26350210 -2103583047 -1852589217 -68351442 -1649715632 1869068060 -1464953388 741861341 1122890569
REM
REM Se 3|2.1|7|7|9|40:41:32(qc=5)
REM Ag 3|2.2|7|7|9|40U:50:41:42(qc=5)
REM 
CELL 1.54180    4.15571    7.00672    8.11255   90.00000   90.00000   90.00000
LATT -1
SFAC Se Ag 
Se     1  0.3308282987914 -0.2078810544803 -0.1436642828450 1.0
Se     1  0.1691717012086  0.2921189455197  0.1436642828450 1.0
Se     1 -0.3308282987914 -0.2921189455197  0.3563357171550 1.0
Se     1 -0.1691717012086  0.2078810544803 -0.3563357171550 1.0
Ag     2  0.1866083413109 -0.1197527938892  0.1748054322269 1.0
Ag     2  0.3133916586891  0.3802472061108 -0.1748054322269 1.0
Ag     2 -0.1866083413109 -0.3802472061108 -0.3251945677731 1.0
Ag     2 -0.3133916586891  0.1197527938892  0.3251945677731 1.0
Ag     2 -0.2705818921157  0.0816525255492 -0.0347912747959 1.0
Ag     2 -0.2294181078843 -0.4183474744508  0.0347912747959 1.0
Ag     2  0.2705818921157  0.4183474744508  0.4652087252041 1.0
Ag     2  0.2294181078843 -0.0816525255492 -0.4652087252041 1.0
END
