TITL 4Ag2Se_TETRA-200724-145603-7e186c -0.0129 245.713076 -4.61321355E+004 0 0 12 (Pc) n - 1
REM
REM Run started: Fri, 24 Jul 2020 15:49:21 +0100 in /scratch/scratch/uccabz1/launch_tmp/launcher_2020-07-24-13-56-01-006674
REM CASTEP 19.11| from code version Version unavailable
REM Functional Perdew Burke Ernzerhof Relativity Koelling-Harmon Dispersion off
REM Cut-off 300.0000 eV Grid scale 1.7500 Gmax 15.5288 1/A FBSC none
REM MP grid 2 2 4 Offset 0.000 0.000 0.000 No. kpts 4 Spacing 0.07
REM Total runtime: 3545.58 s
REM Overall efficiency: 94 %
REM
REM 4Ag2Se_TETRA.cell (4020362940262d3df87d4014b41eb05e)
REM
REM compiler GCC version 4.9.2
REM options -cpp -iprefix /scratch/UCL/applications/gcc/4.9.2/bin/../lib/gcc/x86_64-unknown-linux-gnu/4.9.2/ -mtune=corei7 -march=x86-64 -g -O2
REM COMMAND_LINE
REM seed -831018123 1658825425 -573028267 -88785267 210245712 -2040937931 1152555423 368010967 1431118218 1365211177 1286008427 377933826
REM
REM Se 3|2.1|7|7|9|40:41:32(qc=5)
REM Ag 3|2.2|7|7|9|40U:50:41:42(qc=5)
REM 
CELL 1.54180    7.46387    7.43833    4.42577   90.00000   90.00000   90.00714
LATT -1
SFAC Se Ag 
Se     1 -0.4776153134912 -0.3016918931211  0.3589773819796 1.0
Se     1 -0.4776153134912  0.1983081068789 -0.3589773819796 1.0
Se     1  0.0105543589132  0.3677252226137 -0.1182958573742 1.0
Se     1  0.0105543589132 -0.1322747773863  0.1182958573742 1.0
Ag     2 -0.1603349138620  0.2239964148389  0.3808061697967 1.0
Ag     2 -0.1603349138620 -0.2760035851611 -0.3808061697967 1.0
Ag     2  0.3253409006121  0.2418495913366  0.1469767354796 1.0
Ag     2  0.3253409006121 -0.2581504086634 -0.1469767354796 1.0
Ag     2  0.1382718348681  0.0409115712862 -0.3833514244906 1.0
Ag     2  0.1382718348681 -0.4590884287138  0.3833514244906 1.0
Ag     2 -0.3465315670402  0.4646284930457 -0.0230447268269 1.0
Ag     2 -0.3465315670402 -0.0353715069543  0.0230447268269 1.0
END
