TITL 4Ag2Se-200724-073751-029482 0.0023 253.794462 -4.61318827E+004 0 0 12 (P321) n - 1
REM
REM Run started: Fri, 24 Jul 2020 09:22:44 +0100 in /scratch/scratch/uccabz1/launch_tmp/launcher_2020-07-24-06-37-49-285574
REM CASTEP 19.11| from code version Version unavailable
REM Functional Perdew Burke Ernzerhof Relativity Koelling-Harmon Dispersion off
REM Cut-off 300.0000 eV Grid scale 1.7500 Gmax 15.5288 1/A FBSC none
REM MP grid 3 3 3 Offset 0.000 0.000 0.000 No. kpts 8 Spacing 0.07
REM Total runtime: 6458.6 s
REM Overall efficiency: 95.875 %
REM
REM 4Ag2Se.cell (6404a18c6b5dc90313b5c56acf317f23)
REM
REM compiler GCC version 4.9.2
REM options -cpp -iprefix /scratch/UCL/applications/gcc/4.9.2/bin/../lib/gcc/x86_64-unknown-linux-gnu/4.9.2/ -mtune=corei7 -march=x86-64 -g -O2
REM COMMAND_LINE
REM seed -394314238 837517368 -1183497577 515174450 -51111068 -675128095 2110883148 -761330802 -1131801059 -1229983150 -1739071478 -1946013618
REM
REM Se 3|2.1|7|7|9|40:41:32(qc=5)
REM Ag 3|2.2|7|7|9|40U:50:41:42(qc=5)
REM 
CELL 1.54180    5.49241    7.30457    7.30457  120.00000   90.00000   90.00000
LATT -1
SFAC Se Ag 
Se     1  0.2180068885022  0.3840036872342 -0.0002008441674 1.0
Se     1  0.2180068885022 -0.3842046314017 -0.3840036872342 1.0
Se     1  0.2180068885022  0.0002008441674  0.3842046314017 1.0
Se     1 -0.2822169889115 -0.0000000333333  0.0000000333333 1.0
Ag     2 -0.0405885869179  0.3485028710540  0.2847794127001 1.0
Ag     2 -0.0405885869179 -0.0637235583540 -0.3485028710540 1.0
Ag     2 -0.0405885869179 -0.2847794127001  0.0637235583540 1.0
Ag     2 -0.5170056878764 -0.3529817494875 -0.0682641648550 1.0
Ag     2 -0.5170056878764  0.2847174846325  0.3529817494875 1.0
Ag     2 -0.5170056878764  0.0682641648550 -0.2847174846325 1.0
Ag     2 -0.1253840479188  0.3333333000000 -0.3333333000000 1.0
Ag     2  0.5617361957065 -0.3333333666667  0.3333333666667 1.0
END
