TITL 4Ag2Se_TETRA-200724-144739-b81a25 -0.0001 248.500569 -4.61319368E+004 0 0 12 (Cc) n - 1
REM
REM Run started: Fri, 24 Jul 2020 15:37:06 +0100 in /scratch/scratch/uccabz1/launch_tmp/launcher_2020-07-24-13-47-36-993319
REM CASTEP 19.11| from code version Version unavailable
REM Functional Perdew Burke Ernzerhof Relativity Koelling-Harmon Dispersion off
REM Cut-off 300.0000 eV Grid scale 1.7500 Gmax 15.5288 1/A FBSC none
REM MP grid 3 3 2 Offset 0.000 0.000 0.000 No. kpts 6 Spacing 0.07
REM Total runtime: 3303.66 s
REM Overall efficiency: 93.1667 %
REM
REM 4Ag2Se_TETRA.cell (4020362940262d3df87d4014b41eb05e)
REM
REM compiler GCC version 4.9.2
REM options -cpp -iprefix /scratch/UCL/applications/gcc/4.9.2/bin/../lib/gcc/x86_64-unknown-linux-gnu/4.9.2/ -mtune=corei7 -march=x86-64 -g -O2
REM COMMAND_LINE
REM seed 1223383185 1987518164 616254039 1452382717 1135659293 1949912158 238988760 -212093281 1890362752 -1517644728 1231083584 224564950
REM
REM Se 3|2.1|7|7|9|40:41:32(qc=5)
REM Ag 3|2.2|7|7|9|40U:50:41:42(qc=5)
REM 
CELL 1.54180    5.37291    5.37291    8.62117   87.83148   87.83148   90.65078
LATT -1
SFAC Se Ag 
Se     1 -0.0382142075785  0.1130211487598 -0.4712188852266 1.0
Se     1  0.1130211487598 -0.0382142075785  0.0287811147734 1.0
Se     1 -0.4204992533726 -0.3975168492974  0.2924631859695 1.0
Se     1 -0.3975168492974 -0.4204992533726 -0.2075368140305 1.0
Ag     2  0.2520848724192  0.2458549619705 -0.2341901344283 1.0
Ag     2  0.2458549619705  0.2520848724192  0.2658098655717 1.0
Ag     2  0.0759720048960 -0.2830109060835  0.3445402486863 1.0
Ag     2 -0.2830109060835  0.0759720048960 -0.1554597513137 1.0
Ag     2 -0.0719787552686  0.4798987935960  0.0342056191885 1.0
Ag     2  0.4798987935960 -0.0719787552686 -0.4657943808115 1.0
Ag     2 -0.2771028832485  0.0888363732075  0.2240103658106 1.0
Ag     2  0.0888363732075 -0.2771028832485 -0.2759896341894 1.0
END
