TITL 4Ag2Se-200724-051124-10c059 -0.0789 245.048694 -4.61326896E+004 0 0 12 (Cc) n - 1
REM
REM Run started: Fri, 24 Jul 2020 09:04:23 +0100 in /scratch/scratch/uccabz1/launch_tmp/launcher_2020-07-24-04-11-23-045126
REM CASTEP 19.11| from code version Version unavailable
REM Functional Perdew Burke Ernzerhof Relativity Koelling-Harmon Dispersion off
REM Cut-off 300.0000 eV Grid scale 1.7500 Gmax 15.5288 1/A FBSC none
REM MP grid 3 3 3 Offset 0.000 0.000 0.000 No. kpts 10 Spacing 0.07
REM Total runtime: 14226.6 s
REM Overall efficiency: 97.0769 %
REM
REM 4Ag2Se.cell (6404a18c6b5dc90313b5c56acf317f23)
REM
REM compiler GCC version 4.9.2
REM options -cpp -iprefix /scratch/UCL/applications/gcc/4.9.2/bin/../lib/gcc/x86_64-unknown-linux-gnu/4.9.2/ -mtune=corei7 -march=x86-64 -g -O2
REM COMMAND_LINE
REM seed -1806974610 -1882398284 1975225007 1408193330 566355448 494390348 1269381535 -648758220 1781514616 -1196118910 580751687 182297899
REM
REM Se 3|2.1|7|7|9|40:41:32(qc=5)
REM Ag 3|2.2|7|7|9|40U:50:41:42(qc=5)
REM 
CELL 1.54180    7.04237    7.03767    7.03767   91.82176  119.66289  119.66289
LATT -1
SFAC Se Ag 
Se     1  0.0755767428127  0.1794343636444  0.3963884694462 1.0
Se     1 -0.4244232571873  0.3963884694462  0.1794343636444 1.0
Se     1 -0.4312163264555 -0.1591654467998 -0.3478791546715 1.0
Se     1  0.0687836735445 -0.3478791546715 -0.1591654467998 1.0
Ag     2  0.0405982698067 -0.0582333759921  0.0640593908525 1.0
Ag     2  0.5405982698067  0.0640593908525 -0.0582333759921 1.0
Ag     2 -0.4105755013713 -0.1945780449602  0.2621580985483 1.0
Ag     2  0.0894244986287  0.2621580985483 -0.1945780449602 1.0
Ag     2 -0.4199496099215  0.1724565065944 -0.5253889236139 1.0
Ag     2  0.0800503900785 -0.5253889236139  0.1724565065944 1.0
Ag     2  0.5841041251289  0.4561051558009 -0.2067263388493 1.0
Ag     2  0.0841041251289 -0.2067263388493  0.4561051558009 1.0
END
