TITL 4Ag2Se-200724-062219-0f3155 -0.0057 252.286558 -4.61326474E+004 0 0 12 (R3) n - 1
REM
REM Run started: Fri, 24 Jul 2020 07:35:00 +0100 in /rds/user/bz240/hpc-work/airss-fw/launch_tmp/launcher_2020-07-24-05-22-17-250586
REM CASTEP 19.11| from code version Version unavailable
REM Functional Perdew Burke Ernzerhof Relativity Koelling-Harmon Dispersion off
REM Cut-off 300.0000 eV Grid scale 1.7500 Gmax 15.5288 1/A FBSC none
REM MP grid 3 3 3 Offset 0.000 0.000 0.000 No. kpts 6 Spacing 0.07
REM Total runtime: 4514.19 s
REM Overall efficiency: 95.875 %
REM
REM 4Ag2Se.cell (6404a18c6b5dc90313b5c56acf317f23)
REM
REM compiler GCC version 4.8.5 20150623 (Red Hat 4.8.5-39)
REM options -cpp -mtune=generic -march=x86-64 -g -Og
REM COMMAND_LINE
REM seed 1176468636 655979211 -1185592538 -467671902 1317238302 1845878724 -1534828124 -688550121 1426828146 1263113441 -721059481 1936632014
REM
REM Se 3|2.1|7|7|9|40:41:32(qc=5)
REM Ag 3|2.2|7|7|9|40U:50:41:42(qc=5)
REM 
CELL 1.54180    6.32160    6.32160    6.32160   88.26469   88.26469   88.26469
LATT -1
SFAC Se Ag 
Se     1  0.0205819270078  0.0483524853581 -0.4526518659718 1.0
Se     1  0.0483524853581 -0.4526518659718  0.0205819270078 1.0
Se     1 -0.4526518659718  0.0205819270078  0.0483524853581 1.0
Se     1 -0.4855727604066 -0.4855727604066 -0.4855727604066 1.0
Ag     2 -0.4676148773703  0.0940678731542  0.4876888493181 1.0
Ag     2  0.0940678731542  0.4876888493181 -0.4676148773703 1.0
Ag     2  0.4876888493181 -0.4676148773703  0.0940678731542 1.0
Ag     2  0.2893735502118 -0.1699907560383 -0.2108681171694 1.0
Ag     2 -0.1699907560383 -0.2108681171694  0.2893735502118 1.0
Ag     2 -0.2108681171694  0.2893735502118 -0.1699907560383 1.0
Ag     2 -0.2478815722486 -0.2478815722486 -0.2478815722486 1.0
Ag     2  0.1696692641552  0.1696692641552  0.1696692641552 1.0
END
