TITL 4Ag2Se_TETRA-200724-135240-31f55c -0.0195 257.642676 -4.61315352E+004 0 0 12 (Pma2) n - 1
REM
REM Run started: Fri, 24 Jul 2020 14:49:07 +0100 in /scratch/scratch/uccabz1/launch_tmp/launcher_2020-07-24-12-52-37-951197
REM CASTEP 19.11| from code version Version unavailable
REM Functional Perdew Burke Ernzerhof Relativity Koelling-Harmon Dispersion off
REM Cut-off 300.0000 eV Grid scale 1.7500 Gmax 15.5288 1/A FBSC none
REM MP grid 2 2 4 Offset 0.000 0.000 0.000 No. kpts 4 Spacing 0.07
REM Total runtime: 3785.67 s
REM Overall efficiency: 94.3333 %
REM
REM 4Ag2Se_TETRA.cell (4020362940262d3df87d4014b41eb05e)
REM
REM compiler GCC version 4.9.2
REM options -cpp -iprefix /scratch/UCL/applications/gcc/4.9.2/bin/../lib/gcc/x86_64-unknown-linux-gnu/4.9.2/ -mtune=corei7 -march=x86-64 -g -O2
REM COMMAND_LINE
REM seed -1149284349 1387340829 1877435589 -307511051 1851196591 -997106623 84504969 1262767038 958174340 -1945892507 -2033334660 -1387948390
REM
REM Se 3|2.1|7|7|9|40:41:32(qc=5)
REM Ag 3|2.2|7|7|9|40U:50:41:42(qc=5)
REM 
CELL 1.54180    7.47179    8.37503    4.11725   90.00000   90.00000   90.00000
LATT -1
SFAC Se Ag 
Se     1  0.3803320183258 -0.2574145867265 -0.2532946524097 1.0
Se     1  0.3803320183258  0.2574145867265  0.2532946524097 1.0
Se     1 -0.0569822194971  0.3192552529234 -0.2496808691815 1.0
Se     1 -0.0569822194971 -0.3192552529234  0.2496808691815 1.0
Ag     2 -0.1007747521024 -0.1128611563639 -0.2505573493666 1.0
Ag     2 -0.1007747521024  0.1128611563639  0.2505573493666 1.0
Ag     2 -0.4104058385534  0.1300369516515 -0.2415100808433 1.0
Ag     2 -0.4104058385534 -0.1300369516515  0.2415100808433 1.0
Ag     2 -0.3109205663632 -0.3847747849244 -0.2508717585137 1.0
Ag     2 -0.3109205663632  0.3847747849244  0.2508717585137 1.0
Ag     2  0.2121466581905 -0.1146376617837  0.2494691295625 1.0
Ag     2  0.2121466581905  0.1146376617837 -0.2494691295625 1.0
END
