TITL 4Ag2Se_TETRA-200724-135038-8f33fd 0.0058 266.503399 -4.61319528E+004 0 0 12 (P2) n - 1
REM
REM Run started: Fri, 24 Jul 2020 14:47:19 +0100 in /scratch/scratch/uccabz1/launch_tmp/launcher_2020-07-24-12-50-35-755483
REM CASTEP 19.11| from code version Version unavailable
REM Functional Perdew Burke Ernzerhof Relativity Koelling-Harmon Dispersion off
REM Cut-off 300.0000 eV Grid scale 1.7500 Gmax 15.5288 1/A FBSC none
REM MP grid 3 2 3 Offset 0.000 0.000 0.000 No. kpts 6 Spacing 0.07
REM Total runtime: 3754.07 s
REM Overall efficiency: 93.0833 %
REM
REM 4Ag2Se_TETRA.cell (4020362940262d3df87d4014b41eb05e)
REM
REM compiler GCC version 4.9.2
REM options -cpp -iprefix /scratch/UCL/applications/gcc/4.9.2/bin/../lib/gcc/x86_64-unknown-linux-gnu/4.9.2/ -mtune=corei7 -march=x86-64 -g -O2
REM COMMAND_LINE
REM seed -1765525731 1532512352 -778553914 -1051553078 410942712 -755227901 -187153758 844363982 334814244 221875374 1241371338 -1490398100
REM
REM Se 3|2.1|7|7|9|40:41:32(qc=5)
REM Ag 3|2.2|7|7|9|40U:50:41:42(qc=5)
REM 
CELL 1.54180    7.00361    7.34229    5.19067   90.00000   90.00000   86.80823
LATT -1
SFAC Se Ag 
Se     1 -0.1797188651632  0.2992443409817 -0.1910889755094 1.0
Se     1  0.1797188651632 -0.2992443409817 -0.1910889755094 1.0
Se     1  0.2526976566470  0.1388489843307  0.3183293709029 1.0
Se     1 -0.2526976566470 -0.1388489843307  0.3183293709029 1.0
Ag     2  0.1295020873139 -0.2151220697308  0.3108594438705 1.0
Ag     2 -0.1295020873139  0.2151220697308  0.3108594438705 1.0
Ag     2 -0.1929291814465 -0.0721119755530 -0.1812585270961 1.0
Ag     2  0.1929291814465  0.0721119755530 -0.1812585270961 1.0
Ag     2  0.3035180305400  0.4502652833358  0.1247958490584 1.0
Ag     2 -0.3035180305400 -0.4502652833358  0.1247958490584 1.0
Ag     2  0.4805345397298  0.3055919206735 -0.3789019612261 1.0
Ag     2 -0.4805345397298 -0.3055919206735 -0.3789019612261 1.0
END
