TITL 4Ag2Se_TETRA-200724-180951-d2f7c0 -0.0553 277.804941 -4.61307598E+004 0 0 12 (Ama2) n - 1
REM
REM Run started: Fri, 24 Jul 2020 19:23:49 +0100 in /rds/user/bz240/hpc-work/airss-fw/launch_tmp/launcher_2020-07-24-17-09-49-273842
REM CASTEP 19.11| from code version Version unavailable
REM Functional Perdew Burke Ernzerhof Relativity Koelling-Harmon Dispersion off
REM Cut-off 300.0000 eV Grid scale 1.7500 Gmax 15.5288 1/A FBSC none
REM MP grid 4 4 1 Offset 0.000 0.000 0.000 No. kpts 6 Spacing 0.07
REM Total runtime: 4903.59 s
REM Overall efficiency: 95.9167 %
REM
REM 4Ag2Se_TETRA.cell (4020362940262d3df87d4014b41eb05e)
REM
REM compiler GCC version 4.8.5 20150623 (Red Hat 4.8.5-39)
REM options -cpp -mtune=generic -march=x86-64 -g -Og
REM COMMAND_LINE
REM seed 1170498532 -847244785 387154128 242449595 195290847 1976794202 -309659879 -703047428 1768662904 -298245982 1404060774 737049774
REM
REM Se 3|2.1|7|7|9|40:41:32(qc=5)
REM Ag 3|2.2|7|7|9|40U:50:41:42(qc=5)
REM 
CELL 1.54180    4.29787    4.29787   15.26863   90.00000   90.00000   80.06213
LATT -1
SFAC Se Ag 
Se     1  0.0237592637104  0.3260301807664  0.1224853883312 1.0
Se     1  0.3260301807664  0.0237592637104 -0.1224853883312 1.0
Se     1  0.3260301807664  0.0237592637104 -0.3775146116688 1.0
Se     1  0.0237592637104  0.3260301807664  0.3775146116688 1.0
Ag     2 -0.3038794088949 -0.1210858279697  0.1562191537795 1.0
Ag     2 -0.1210858279697 -0.3038794088949 -0.1562191537795 1.0
Ag     2 -0.1210858279697 -0.3038794088949 -0.3437808462205 1.0
Ag     2 -0.3038794088949 -0.1210858279697  0.3437808462205 1.0
Ag     2  0.2438358454584 -0.2388839530706  0.4657427761775 1.0
Ag     2 -0.2388839530706  0.2438358454584 -0.4657427761775 1.0
Ag     2 -0.2388839530706  0.2438358454584 -0.0342572238225 1.0
Ag     2  0.2438358454584 -0.2388839530706  0.0342572238225 1.0
END
