TITL 4Ag2Se-200724-031226-f279ad 0.0401 236.753035 -4.61326289E+004 0 0 12 (P21/c) n - 1
REM
REM Run started: Fri, 24 Jul 2020 05:32:24 +0100 in /rds/user/bz240/hpc-work/airss-fw/launch_tmp/launcher_2020-07-24-02-12-24-745675
REM CASTEP 19.11| from code version Version unavailable
REM Functional Perdew Burke Ernzerhof Relativity Koelling-Harmon Dispersion off
REM Cut-off 300.0000 eV Grid scale 1.7500 Gmax 15.5288 1/A FBSC none
REM MP grid 4 3 2 Offset 0.000 0.000 0.000 No. kpts 6 Spacing 0.07
REM Total runtime: 8648.5 s
REM Overall efficiency: 96.9231 %
REM
REM 4Ag2Se.cell (6404a18c6b5dc90313b5c56acf317f23)
REM
REM compiler GCC version 4.8.5 20150623 (Red Hat 4.8.5-39)
REM options -cpp -mtune=generic -march=x86-64 -g -Og
REM COMMAND_LINE
REM seed 588784294 -1832728276 1961614321 434552191 -1853288071 -1659853711 -360270349 -209447027 684279145 1253759329 -739579297 1090646346
REM
REM Se 3|2.1|7|7|9|40:41:32(qc=5)
REM Ag 3|2.2|7|7|9|40U:50:41:42(qc=5)
REM 
CELL 1.54180    4.04766    7.23104    8.64190   90.00000   90.00000  110.60767
LATT -1
SFAC Se Ag 
Se     1 -0.2664251992543  0.0534461503795 -0.3756182197484 1.0
Se     1  0.2335748007457 -0.4465538496205  0.3756182197484 1.0
Se     1 -0.1768307424622  0.4857941581298 -0.1235538736585 1.0
Se     1  0.3231692575378 -0.0142058418702  0.1235538736585 1.0
Ag     2  0.0267307725908  0.2839596748384  0.1220925316606 1.0
Ag     2 -0.4732692274092 -0.2160403251616 -0.1220925316606 1.0
Ag     2  0.0347674469465 -0.2404324599565 -0.3763580675179 1.0
Ag     2  0.5347674469465  0.2595675400435  0.3763580675179 1.0
Ag     2  0.3353480981465  0.4365033434124 -0.3476766482972 1.0
Ag     2 -0.1646519018535 -0.0634966565876  0.3476766482972 1.0
Ag     2 -0.2757382759672 -0.3900207668036  0.1524330574770 1.0
Ag     2  0.2242617240328  0.1099792331964 -0.1524330574770 1.0
END
