TITL 4Ag2Se_TETRA-200724-164647-fefdba -0.0026 246.248033 -4.61322660E+004 0 0 12 (P21) n - 1
REM
REM Run started: Fri, 24 Jul 2020 17:55:17 +0100 in /scratch/scratch/uccabz1/launch_tmp/launcher_2020-07-24-15-46-45-721381
REM CASTEP 19.11| from code version Version unavailable
REM Functional Perdew Burke Ernzerhof Relativity Koelling-Harmon Dispersion off
REM Cut-off 300.0000 eV Grid scale 1.7500 Gmax 15.5288 1/A FBSC none
REM MP grid 3 3 3 Offset 0.000 0.000 0.000 No. kpts 10 Spacing 0.07
REM Total runtime: 4539.94 s
REM Overall efficiency: 95.0833 %
REM
REM 4Ag2Se_TETRA.cell (4020362940262d3df87d4014b41eb05e)
REM
REM compiler GCC version 4.9.2
REM options -cpp -iprefix /scratch/UCL/applications/gcc/4.9.2/bin/../lib/gcc/x86_64-unknown-linux-gnu/4.9.2/ -mtune=corei7 -march=x86-64 -g -O2
REM COMMAND_LINE
REM seed 1008124715 -636282367 -33428992 1648856402 -987769348 608286263 768703875 304631314 1705441534 -953295473 513247624 -949175208
REM
REM Se 3|2.1|7|7|9|40:41:32(qc=5)
REM Ag 3|2.2|7|7|9|40U:50:41:42(qc=5)
REM 
CELL 1.54180    6.82623    6.12827    5.89009   90.00000   90.00000   92.01226
LATT -1
SFAC Se Ag 
Se     1 -0.2763906767395 -0.0170590510848 -0.3145419990602 1.0
Se     1  0.2763906767395  0.0170590510848  0.1854580009398 1.0
Se     1 -0.2641020204386  0.4182224647374  0.1851256310523 1.0
Se     1  0.2641020204386 -0.4182224647374 -0.3148743689477 1.0
Ag     2 -0.0438433171088 -0.3029398175115 -0.0574676843908 1.0
Ag     2  0.0438433171088  0.3029398175115  0.4425323156092 1.0
Ag     2 -0.0053557697963  0.1926299690328 -0.0692288417067 1.0
Ag     2  0.0053557697963 -0.1926299690328  0.4307711582933 1.0
Ag     2 -0.3763331119719 -0.1520440033576  0.2095113756319 1.0
Ag     2  0.3763331119719  0.1520440033576 -0.2904886243681 1.0
Ag     2 -0.3531768404816 -0.4585927755241 -0.3862307815264 1.0
Ag     2  0.3531768404816  0.4585927755241  0.1137692184736 1.0
END
