TITL 4Ag2Se-200724-061903-5f3f29 -0.0049 241.229493 -4.61320422E+004 0 0 12 (P2/m) n - 1
REM
REM Run started: Fri, 24 Jul 2020 07:50:12 +0100 in /rds/user/bz240/hpc-work/airss-fw/launch_tmp/launcher_2020-07-24-05-19-01-499664
REM CASTEP 19.11| from code version Version unavailable
REM Functional Perdew Burke Ernzerhof Relativity Koelling-Harmon Dispersion off
REM Cut-off 300.0000 eV Grid scale 1.7500 Gmax 15.5288 1/A FBSC none
REM MP grid 4 3 2 Offset 0.000 0.000 0.000 No. kpts 6 Spacing 0.07
REM Total runtime: 5907.46 s
REM Overall efficiency: 96 %
REM
REM 4Ag2Se.cell (6404a18c6b5dc90313b5c56acf317f23)
REM
REM compiler GCC version 4.8.5 20150623 (Red Hat 4.8.5-39)
REM options -cpp -mtune=generic -march=x86-64 -g -Og
REM COMMAND_LINE
REM seed -1825926630 1970187144 1067247364 831415353 63559473 -440655432 964220071 -219269886 1444958821 -697548609 1663446921 1941934753
REM
REM Se 3|2.1|7|7|9|40:41:32(qc=5)
REM Ag 3|2.2|7|7|9|40U:50:41:42(qc=5)
REM 
CELL 1.54180    4.29345    5.61134   10.11841   98.28388   90.00000   90.00000
LATT -1
SFAC Se Ag 
Se     1  0.4890504000000 -0.2503646547210 -0.2465299112168 1.0
Se     1  0.4890504000000  0.2503646547210  0.2465299112168 1.0
Se     1 -0.0109496000000 -0.2835225666936  0.0311699112789 1.0
Se     1 -0.0109496000000  0.2835225666936 -0.0311699112789 1.0
Ag     2  0.4890504000000 -0.2502073836836 -0.5163802914341 1.0
Ag     2  0.4890504000000  0.2502073836836  0.5163802914341 1.0
Ag     2 -0.0109496000000  0.5084937610673  0.3435097980109 1.0
Ag     2 -0.0109496000000 -0.5084937610673 -0.3435097980109 1.0
Ag     2 -0.0109496000000 -0.0065589839025 -0.3565251103774 1.0
Ag     2 -0.0109496000000  0.0065589839025  0.3565251103774 1.0
Ag     2  0.4890504000000 -0.7420489191930 -0.1918937679767 1.0
Ag     2  0.4890504000000  0.7420489191930  0.1918937679767 1.0
END
