TITL 4Ag2Se_TETRA-200724-182609-871abd -0.0337 237.970579 -4.61322124E+004 0 0 12 (P212121) n - 1
REM
REM Run started: Fri, 24 Jul 2020 19:12:54 +0100 in /rds/user/bz240/hpc-work/airss-fw/launch_tmp/launcher_2020-07-24-17-26-07-617098
REM CASTEP 19.11| from code version Version unavailable
REM Functional Perdew Burke Ernzerhof Relativity Koelling-Harmon Dispersion off
REM Cut-off 300.0000 eV Grid scale 1.7500 Gmax 15.5288 1/A FBSC none
REM MP grid 4 4 2 Offset 0.000 0.000 0.000 No. kpts 4 Spacing 0.07
REM Total runtime: 3114.64 s
REM Overall efficiency: 93.8333 %
REM
REM 4Ag2Se_TETRA.cell (4020362940262d3df87d4014b41eb05e)
REM
REM compiler GCC version 4.8.5 20150623 (Red Hat 4.8.5-39)
REM options -cpp -mtune=generic -march=x86-64 -g -Og
REM COMMAND_LINE
REM seed -446734329 -1721718048 -1477000222 586052932 -1028701744 -813745910 922247006 -1146408723 1962093140 1490959974 -723069790 1481945778
REM
REM Se 3|2.1|7|7|9|40:41:32(qc=5)
REM Ag 3|2.2|7|7|9|40U:50:41:42(qc=5)
REM 
CELL 1.54180    4.14631    4.24128   13.53207   90.00000   90.00000   90.00000
LATT -1
SFAC Se Ag 
Se     1  0.0795181658526  0.0274334250044 -0.3633578676264 1.0
Se     1 -0.0795181658526 -0.4725665749956 -0.1366421323736 1.0
Se     1 -0.4204818341474  0.4725665749956  0.3633578676264 1.0
Se     1  0.4204818341474 -0.0274334250044  0.1366421323736 1.0
Ag     2 -0.1301543980274 -0.4704482087687  0.1822713462748 1.0
Ag     2  0.1301543980274  0.0295517912313  0.3177286537252 1.0
Ag     2  0.3698456019726 -0.0295517912313 -0.1822713462748 1.0
Ag     2 -0.3698456019726  0.4704482087687 -0.3177286537252 1.0
Ag     2  0.1559476684624 -0.4740404807858 -0.4804561321090 1.0
Ag     2 -0.1559476684624  0.0259595192142 -0.0195438678910 1.0
Ag     2 -0.3440523315376 -0.0259595192142  0.4804561321090 1.0
Ag     2  0.3440523315376  0.4740404807858  0.0195438678910 1.0
END
