TITL 4Ag2Se-200724-223126-19a3df -0.0265 244.032633 -4.61325741E+004 0 0 12 (P-1) n - 1
REM
REM Run started: Sat, 25 Jul 2020 05:06:56 +0100 in /scratch/scratch/uccabz1/launch_tmp/launcher_2020-07-25-03-22-10-437881
REM CASTEP 19.11| from code version Version unavailable
REM Functional Perdew Burke Ernzerhof Relativity Koelling-Harmon Dispersion off
REM Cut-off 300.0000 eV Grid scale 1.7500 Gmax 15.5288 1/A FBSC none
REM MP grid 3 3 3 Offset 0.000 0.000 0.000 No. kpts 14 Spacing 0.07
REM Total runtime: 3720.85 s
REM Overall efficiency: 71 %
REM
REM
REM
REM compiler GCC version 4.8.5 20150623 (Red Hat 4.8.5-39)
REM options -cpp -mtune=generic -march=x86-64 -g -Og
REM COMMAND_LINE
REM seed 1965364495 -2113930038 1033677940 800905572 -1750532713 589350594 -1506909948 -1742271908 -29355389 1582295185 1305999044 2100243499
REM
REM Se 3|2.1|7|7|9|40:41:32(qc=5)
REM Ag 3|2.2|7|7|9|40U:50:41:42(qc=5)
REM 
CELL 1.54180    6.63288    7.25555    7.30843  123.27774   85.12933  120.50144
LATT -1
SFAC Se Ag 
Se     1 -0.0851155976966  0.3012919340317  0.1055126217252 1.0
Se     1  0.0851155976966 -0.3012919340317 -0.1055126217252 1.0
Se     1  0.6562461300975  0.7338437819117  0.3756299873866 1.0
Se     1 -0.6562461300975 -0.7338437819117 -0.3756299873866 1.0
Ag     2  0.4143127494872  0.2143939325825  0.0968074656596 1.0
Ag     2 -0.4143127494872 -0.2143939325825 -0.0968074656596 1.0
Ag     2  0.2620569252138  0.6352408511881  0.5377754426227 1.0
Ag     2 -0.2620569252138 -0.6352408511881 -0.5377754426227 1.0
Ag     2 -0.3447072474326  0.1796905739557 -0.2586611509841 1.0
Ag     2  0.3447072474326 -0.1796905739557  0.2586611509841 1.0
Ag     2 -0.0150290484394  0.0524765464933  0.2683376161774 1.0
Ag     2  0.0150290484394 -0.0524765464933 -0.2683376161774 1.0
END
