TITL 4Ag2Se_TETRA-200724-153231-ee5290 -0.0746 265.404676 -4.61319291E+004 0 0 12 (Pc) n - 1
REM
REM Run started: Fri, 24 Jul 2020 16:44:48 +0100 in /rds/user/bz240/hpc-work/airss-fw/launch_tmp/launcher_2020-07-24-14-32-29-696466
REM CASTEP 19.11| from code version Version unavailable
REM Functional Perdew Burke Ernzerhof Relativity Koelling-Harmon Dispersion off
REM Cut-off 300.0000 eV Grid scale 1.7500 Gmax 15.5288 1/A FBSC none
REM MP grid 3 3 2 Offset 0.000 0.000 0.000 No. kpts 6 Spacing 0.07
REM Total runtime: 4775.89 s
REM Overall efficiency: 95.6667 %
REM
REM 4Ag2Se_TETRA.cell (4020362940262d3df87d4014b41eb05e)
REM
REM compiler GCC version 4.8.5 20150623 (Red Hat 4.8.5-39)
REM options -cpp -mtune=generic -march=x86-64 -g -Og
REM COMMAND_LINE
REM seed 1747420207 1164778374 223549495 -1261082910 440358381 -307366923 504212230 -81579345 1151232811 -1009093203 -1823228677 1644851731
REM
REM Se 3|2.1|7|7|9|40:41:32(qc=5)
REM Ag 3|2.2|7|7|9|40U:50:41:42(qc=5)
REM 
CELL 1.54180    5.97078    5.95266    7.46736   90.00000   89.87947   90.00000
LATT -1
SFAC Se Ag 
Se     1  0.1149148462530  0.2298266693723 -0.3923312073923 1.0
Se     1 -0.3850851537470 -0.2298266693723 -0.3923312073923 1.0
Se     1 -0.3806633489170  0.2482154719555  0.0519678250167 1.0
Se     1  0.1193366510830 -0.2482154719555  0.0519678250167 1.0
Ag     2  0.3902782771925  0.0673729601842  0.3184687572246 1.0
Ag     2 -0.1097217228075 -0.0673729601842  0.3184687572246 1.0
Ag     2  0.3677548757427  0.4874589444963 -0.1892184925837 1.0
Ag     2 -0.1322451242573 -0.4874589444963 -0.1892184925837 1.0
Ag     2  0.0988058524051  0.4862971545130  0.3436252206627 1.0
Ag     2 -0.4011941475948 -0.4862971545130  0.3436252206627 1.0
Ag     2  0.0982246973237  0.2255007040194  0.0425052970720 1.0
Ag     2 -0.4017753026763 -0.2255007040194  0.0425052970720 1.0
END
