TITL 4Ag2Se_TETRA-200724-140646-f277d3 -0.0752 252.090486 -4.61309769E+004 0 0 12 (Pna21) n - 1
REM
REM Run started: Fri, 24 Jul 2020 14:56:19 +0100 in /scratch/scratch/uccabz1/launch_tmp/launcher_2020-07-24-13-06-44-456668
REM CASTEP 19.11| from code version Version unavailable
REM Functional Perdew Burke Ernzerhof Relativity Koelling-Harmon Dispersion off
REM Cut-off 300.0000 eV Grid scale 1.7500 Gmax 15.5288 1/A FBSC none
REM MP grid 3 3 2 Offset 0.000 0.000 0.000 No. kpts 5 Spacing 0.07
REM Total runtime: 3272.92 s
REM Overall efficiency: 93.6667 %
REM
REM 4Ag2Se_TETRA.cell (4020362940262d3df87d4014b41eb05e)
REM
REM compiler GCC version 4.9.2
REM options -cpp -iprefix /scratch/UCL/applications/gcc/4.9.2/bin/../lib/gcc/x86_64-unknown-linux-gnu/4.9.2/ -mtune=corei7 -march=x86-64 -g -O2
REM COMMAND_LINE
REM seed 825747158 -1257473175 896579838 -1729246149 1158173911 -1766809131 -971331680 -2094004370 1480139754 -1555905850 -1465276964 1263986093
REM
REM Se 3|2.1|7|7|9|40:41:32(qc=5)
REM Ag 3|2.2|7|7|9|40U:50:41:42(qc=5)
REM 
CELL 1.54180    4.82164    4.97367   10.51198   90.00000   90.00000   89.98350
LATT -1
SFAC Se Ag 
Se     1 -0.4803916523095  0.0892998113972 -0.3626247300201 1.0
Se     1  0.0196083476905  0.0892998113972  0.3626247300201 1.0
Se     1  0.1888593969061 -0.4163633948197 -0.1374809747043 1.0
Se     1 -0.3111406030939 -0.4163633948197  0.1374809747043 1.0
Ag     2 -0.0690225397039  0.0731568662201 -0.1985694789269 1.0
Ag     2  0.4309774602961  0.0731568662201  0.1985694789269 1.0
Ag     2 -0.0752855646288  0.0893562139455  0.0677901040855 1.0
Ag     2  0.4247144353712  0.0893562139455 -0.0677901040855 1.0
Ag     2  0.2813604268268 -0.4058083215660 -0.4324842384058 1.0
Ag     2 -0.2186395731732 -0.4058083215660  0.4324842384058 1.0
Ag     2 -0.2241495670907 -0.4261866751771 -0.3009643636801 1.0
Ag     2  0.2758504329093 -0.4261866751771  0.3009643636801 1.0
END
