TITL 4Ag2Se-200724-032041-a1b12f 0.0391 291.590045 -4.61305709E+004 0 0 12 (P63/mmc) n - 1
REM
REM Run started: Fri, 24 Jul 2020 03:31:47 +0100 in /rds/user/bz240/hpc-work/airss-fw/launch_tmp/launcher_2020-07-24-02-20-38-762220
REM CASTEP 19.11| from code version Version unavailable
REM Functional Perdew Burke Ernzerhof Relativity Koelling-Harmon Dispersion off
REM Cut-off 300.0000 eV Grid scale 1.7500 Gmax 15.5288 1/A FBSC none
REM MP grid 4 2 2 Offset 0.000 0.000 0.000 No. kpts 4 Spacing 0.07
REM Total runtime: 755.35 s
REM Overall efficiency: 92.2 %
REM
REM 4Ag2Se.cell (6404a18c6b5dc90313b5c56acf317f23)
REM
REM compiler GCC version 4.8.5 20150623 (Red Hat 4.8.5-39)
REM options -cpp -mtune=generic -march=x86-64 -g -Og
REM COMMAND_LINE
REM seed 1884833107 -1413628483 -619186114 1600992085 -1079261744 85210781 984570590 -1714801977 700659140 1304184268 471080140 -2061870657
REM
REM Se 3|2.1|7|7|9|40:41:32(qc=5)
REM Ag 3|2.2|7|7|9|40U:50:41:42(qc=5)
REM 
CELL 1.54180    4.50165    7.92073    8.17778   90.00000   90.00000   90.04056
LATT -1
SFAC Se Ag 
Se     1 -0.2112670000000 -0.4678528000000 -0.2500000000000 1.0
Se     1 -0.2112670000000 -0.4678528000000  0.2500000000000 1.0
Se     1  0.2887330000000  0.0321472000000  0.2500000000000 1.0
Se     1  0.2887330000000  0.0321472000000 -0.2500000000000 1.0
Ag     2  0.2889872146998  0.3654128545103 -0.3264032596193 1.0
Ag     2  0.2889872146998  0.3654128545103  0.3264032596193 1.0
Ag     2 -0.2110127853002 -0.1345871454897  0.3264032596193 1.0
Ag     2 -0.2110127853002 -0.1345871454897 -0.3264032596193 1.0
Ag     2 -0.2115212146998  0.1988815454897 -0.1735967403807 1.0
Ag     2 -0.2115212146998  0.1988815454897  0.1735967403807 1.0
Ag     2 -0.7115212146998 -0.3011184545103  0.1735967403807 1.0
Ag     2 -0.7115212146998 -0.3011184545103 -0.1735967403807 1.0
END
