TITL 4Ag2Se_TETRA-200724-144555-a8ad2e -0.0214 245.420065 -4.61318455E+004 0 0 12 (P-1) n - 1
REM
REM Run started: Fri, 24 Jul 2020 16:01:03 +0100 in /rds/user/bz240/hpc-work/airss-fw/launch_tmp/launcher_2020-07-24-13-45-54-164987
REM CASTEP 19.11| from code version Version unavailable
REM Functional Perdew Burke Ernzerhof Relativity Koelling-Harmon Dispersion off
REM Cut-off 300.0000 eV Grid scale 1.7500 Gmax 15.5288 1/A FBSC none
REM MP grid 3 3 2 Offset 0.000 0.000 0.000 No. kpts 9 Spacing 0.07
REM Total runtime: 5007.38 s
REM Overall efficiency: 96 %
REM
REM 4Ag2Se_TETRA.cell (4020362940262d3df87d4014b41eb05e)
REM
REM compiler GCC version 4.8.5 20150623 (Red Hat 4.8.5-39)
REM options -cpp -mtune=generic -march=x86-64 -g -Og
REM COMMAND_LINE
REM seed -1753014080 -113182538 -1328714614 1222044926 -651648329 -1873919059 -1982320407 -104221736 754808937 -2142858165 1278361332 1521490623
REM
REM Se 3|2.1|7|7|9|40:41:32(qc=5)
REM Ag 3|2.2|7|7|9|40U:50:41:42(qc=5)
REM 
CELL 1.54180    5.52372    5.46696    8.12993   88.75599   89.26925   89.48101
LATT -1
SFAC Se Ag 
Se     1 -0.2517836956308  0.0423897838566 -0.3281131855762 1.0
Se     1  0.2517836956308 -0.0423897838566  0.3281131855762 1.0
Se     1  0.2331964565763  0.4888026492376 -0.2061100616704 1.0
Se     1 -0.2331964565763 -0.4888026492376  0.2061100616704 1.0
Ag     2 -0.3262355843410 -0.4532763718480 -0.3764836019187 1.0
Ag     2  0.3262355843410  0.4532763718480  0.3764836019187 1.0
Ag     2  0.2469229543259 -0.0376598033762 -0.3409104009588 1.0
Ag     2 -0.2469229543259  0.0376598033762  0.3409104009588 1.0
Ag     2 -0.1099832389950 -0.2163762537411 -0.0611293785613 1.0
Ag     2  0.1099832389950  0.2163762537411  0.0611293785613 1.0
Ag     2 -0.3935395169394  0.2377313725252 -0.0421151871080 1.0
Ag     2  0.3935395169394 -0.2377313725252  0.0421151871080 1.0
END
