TITL 4Ag2Se-200724-092530-e1ba4b 0.0118 225.346492 -4.61318963E+004 0 0 12 (Immm) n - 1
REM
REM Run started: Fri, 24 Jul 2020 11:04:55 +0100 in /scratch/scratch/uccabz1/launch_tmp/launcher_2020-07-24-08-25-27-901252
REM CASTEP 19.11| from code version Version unavailable
REM Functional Perdew Burke Ernzerhof Relativity Koelling-Harmon Dispersion off
REM Cut-off 300.0000 eV Grid scale 1.7500 Gmax 15.5288 1/A FBSC none
REM MP grid 4 3 2 Offset 0.000 0.000 0.000 No. kpts 6 Spacing 0.07
REM Total runtime: 6118.75 s
REM Overall efficiency: 94.8 %
REM
REM 4Ag2Se.cell (6404a18c6b5dc90313b5c56acf317f23)
REM
REM compiler GCC version 4.9.2
REM options -cpp -iprefix /scratch/UCL/applications/gcc/4.9.2/bin/../lib/gcc/x86_64-unknown-linux-gnu/4.9.2/ -mtune=corei7 -march=x86-64 -g -O2
REM COMMAND_LINE
REM seed -51130496 2021828372 -1508269943 1813315326 67004496 -129957521 -1760888027 1200875017 721962068 227847346 1269475780 -1043367211
REM
REM Se 3|2.1|7|7|9|40:41:32(qc=5)
REM Ag 3|2.2|7|7|9|40U:50:41:42(qc=5)
REM 
CELL 1.54180    3.76448    6.97352    9.28739  112.44100   90.00000   90.00000
LATT -1
SFAC Se Ag 
Se     1  0.2183299734901  0.7494176391180  0.4992112889662 1.0
Se     1  0.2183299734901 -0.7494176391180 -0.4992112889662 1.0
Se     1 -0.2817231594330 -0.2504232603586 -0.0009206627093 1.0
Se     1 -0.2817231594330  0.2504232603586  0.0009206627093 1.0
Ag     2 -0.2950428847296 -0.0824132756043  0.3330436601150 1.0
Ag     2 -0.2950428847296  0.0824132756043 -0.3330436601150 1.0
Ag     2  0.2064217741642 -0.5836675216074 -0.1673484932793 1.0
Ag     2  0.2064217741642  0.5836675216074  0.1673484932793 1.0
Ag     2 -0.2934435068279  0.4160730153384  0.3325315643205 1.0
Ag     2 -0.2934435068279 -0.4160730153384 -0.3325315643205 1.0
Ag     2  0.2049116033362  0.0827603514809  0.1670770478195 1.0
Ag     2  0.2049116033362 -0.0827603514809 -0.1670770478195 1.0
END
