TITL 4Ag2Se-200724-031707-68cc22 -0.0273 259.055740 -4.61320083E+004 0 0 12 (R3) n - 1
REM
REM Run started: Fri, 24 Jul 2020 04:50:46 +0100 in /scratch/scratch/uccabz1/launch_tmp/launcher_2020-07-24-02-17-05-896182
REM CASTEP 19.11| from code version Version unavailable
REM Functional Perdew Burke Ernzerhof Relativity Koelling-Harmon Dispersion off
REM Cut-off 300.0000 eV Grid scale 1.7500 Gmax 15.5288 1/A FBSC none
REM MP grid 3 3 3 Offset 0.000 0.000 0.000 No. kpts 6 Spacing 0.07
REM Total runtime: 5712.88 s
REM Overall efficiency: 94.5 %
REM
REM 4Ag2Se.cell (6404a18c6b5dc90313b5c56acf317f23)
REM
REM compiler GCC version 4.9.2
REM options -cpp -iprefix /scratch/UCL/applications/gcc/4.9.2/bin/../lib/gcc/x86_64-unknown-linux-gnu/4.9.2/ -mtune=corei7 -march=x86-64 -g -O2
REM COMMAND_LINE
REM seed -527468795 42683875 -961728959 204517 941983176 625175363 483980901 -500642749 -232582205 1570417478 2024067922 103883179
REM
REM Se 3|2.1|7|7|9|40:41:32(qc=5)
REM Ag 3|2.2|7|7|9|40U:50:41:42(qc=5)
REM 
CELL 1.54180    6.39539    6.39539    6.39539   85.28122   85.28122   85.28122
LATT -1
SFAC Se Ag 
Se     1 -0.1479709896000  0.3289057513487  0.3325442559786 1.0
Se     1  0.3325442559786 -0.1479709896000  0.3289057513487 1.0
Se     1  0.3289057513487  0.3325442559786 -0.1479709896000 1.0
Se     1 -0.1720427500907 -0.1720427500907 -0.1720427500907 1.0
Ag     2 -0.2299526905780 -0.1938881721757  0.3023157936077 1.0
Ag     2  0.3023157936077 -0.2299526905780 -0.1938881721757 1.0
Ag     2 -0.1938881721757  0.3023157936077 -0.2299526905780 1.0
Ag     2 -0.4195199331471 -0.4557238047188  0.0738111853599 1.0
Ag     2  0.0738111853599 -0.4195199331471 -0.4557238047188 1.0
Ag     2 -0.4557238047188  0.0738111853599 -0.4195199331471 1.0
Ag     2  0.0503694651237  0.0503694651237  0.0503694651237 1.0
Ag     2  0.2859983888918  0.2859983888918  0.2859983888918 1.0
END
