TITL 4Ag2Se-200724-075836-64f0e2 -0.0038 253.561048 -4.61314094E+004 0 0 12 (P3) n - 1
REM
REM Run started: Fri, 24 Jul 2020 09:13:12 +0100 in /rds/user/bz240/hpc-work/airss-fw/launch_tmp/launcher_2020-07-24-06-58-34-651554
REM CASTEP 19.11| from code version Version unavailable
REM Functional Perdew Burke Ernzerhof Relativity Koelling-Harmon Dispersion off
REM Cut-off 300.0000 eV Grid scale 1.7500 Gmax 15.5288 1/A FBSC none
REM MP grid 3 3 3 Offset 0.000 0.000 0.000 No. kpts 8 Spacing 0.07
REM Total runtime: 4505.44 s
REM Overall efficiency: 94.7143 %
REM
REM 4Ag2Se.cell (6404a18c6b5dc90313b5c56acf317f23)
REM
REM compiler GCC version 4.8.5 20150623 (Red Hat 4.8.5-39)
REM options -cpp -mtune=generic -march=x86-64 -g -Og
REM COMMAND_LINE
REM seed -500608595 2076025225 196317322 -1302730318 -450212799 -375975709 1109117065 -2074427711 434879142 -838731389 17742361 -29169707
REM
REM Se 3|2.1|7|7|9|40:41:32(qc=5)
REM Ag 3|2.2|7|7|9|40U:50:41:42(qc=5)
REM 
CELL 1.54180    5.40899    7.35729    7.35729  120.00000   90.00000   90.00000
LATT -1
SFAC Se Ag 
Se     1  0.3263979822579 -0.0253772895130  0.3879992251633 1.0
Se     1  0.3263979822579  0.4133766146763  0.0253772895130 1.0
Se     1  0.3263979822579 -0.3879992251633 -0.4133766146763 1.0
Se     1 -0.2223443627698  0.0000000333333 -0.0000000333333 1.0
Ag     2  0.1192990716728  0.0000345651180 -0.2573571498013 1.0
Ag     2  0.1192990716728 -0.2573916149193 -0.0000345651180 1.0
Ag     2  0.1192990716728  0.2573571498013  0.2573916149193 1.0
Ag     2 -0.1865075378818 -0.0742809268329  0.3733477348764 1.0
Ag     2 -0.1865075378818  0.4476287617093  0.0742809268329 1.0
Ag     2 -0.1865075378818 -0.3733477348764 -0.4476287617093 1.0
Ag     2  0.0684109493493  0.3333333666667 -0.3333333666667 1.0
Ag     2 -0.4189569347265  0.3333333666667 -0.3333333666667 1.0
END
