TITL 4Ag2Se-200724-045255-4b7acc 0.0032 252.446340 -4.61311289E+004 0 0 12 (R3) n - 1
REM
REM Run started: Fri, 24 Jul 2020 05:34:32 +0100 in /rds/user/bz240/hpc-work/airss-fw/launch_tmp/launcher_2020-07-24-03-52-53-744120
REM CASTEP 19.11| from code version Version unavailable
REM Functional Perdew Burke Ernzerhof Relativity Koelling-Harmon Dispersion off
REM Cut-off 300.0000 eV Grid scale 1.7500 Gmax 15.5288 1/A FBSC none
REM MP grid 3 3 3 Offset 0.000 0.000 0.000 No. kpts 6 Spacing 0.07
REM Total runtime: 2684.52 s
REM Overall efficiency: 95.8333 %
REM
REM 4Ag2Se.cell (6404a18c6b5dc90313b5c56acf317f23)
REM
REM compiler GCC version 4.8.5 20150623 (Red Hat 4.8.5-39)
REM options -cpp -mtune=generic -march=x86-64 -g -Og
REM COMMAND_LINE
REM seed 619269972 -675926234 -49637018 1181158887 -1675555473 -334205954 1355238358 -1126664025 -1514884469 500243850 -897117059 -1093952365
REM
REM Se 3|2.1|7|7|9|40:41:32(qc=5)
REM Ag 3|2.2|7|7|9|40U:50:41:42(qc=5)
REM 
CELL 1.54180    7.08829    7.08829    7.08829   60.10785   60.10785   60.10785
LATT -1
SFAC Se Ag 
Se     1  0.2352842630737 -0.0138651656191 -0.3681668898142 1.0
Se     1 -0.0138651656191 -0.3681668898142  0.2352842630737 1.0
Se     1 -0.3681668898142  0.2352842630737 -0.0138651656191 1.0
Se     1  0.4403360310037  0.4403360310037  0.4403360310037 1.0
Ag     2  0.3210190297507 -0.1768014384580  0.0408511560428 1.0
Ag     2 -0.1768014384580  0.0408511560428  0.3210190297507 1.0
Ag     2  0.0408511560428  0.3210190297507 -0.1768014384580 1.0
Ag     2 -0.1629825349462  0.2778811129247 -0.4757417664720 1.0
Ag     2  0.2778811129247 -0.4757417664720 -0.1629825349462 1.0
Ag     2 -0.4757417664720 -0.1629825349462  0.2778811129247 1.0
Ag     2 -0.1675043317481 -0.1675043317481 -0.1675043317481 1.0
Ag     2 -0.3293141657380 -0.3293141657380 -0.3293141657380 1.0
END
