TITL 4Ag2Se-200724-031037-68a96d -0.0143 259.603704 -4.61323750E+004 0 0 12 (C2) n - 1
REM
REM Run started: Fri, 24 Jul 2020 06:05:54 +0100 in /scratch/scratch/uccabz1/launch_tmp/launcher_2020-07-24-02-10-35-767721
REM CASTEP 19.11| from code version Version unavailable
REM Functional Perdew Burke Ernzerhof Relativity Koelling-Harmon Dispersion off
REM Cut-off 300.0000 eV Grid scale 1.7500 Gmax 15.5288 1/A FBSC none
REM MP grid 3 3 3 Offset 0.000 0.000 0.000 No. kpts 10 Spacing 0.07
REM Total runtime: 10708.9 s
REM Overall efficiency: 96.7273 %
REM
REM 4Ag2Se.cell (6404a18c6b5dc90313b5c56acf317f23)
REM
REM compiler GCC version 4.9.2
REM options -cpp -iprefix /scratch/UCL/applications/gcc/4.9.2/bin/../lib/gcc/x86_64-unknown-linux-gnu/4.9.2/ -mtune=corei7 -march=x86-64 -g -O2
REM COMMAND_LINE
REM seed 38694906 -268119640 1769846289 -1672858169 -718232525 -1514116354 544544541 -1854142009 1295419308 918033759 -1638137460 1515496539
REM
REM Se 3|2.1|7|7|9|40:41:32(qc=5)
REM Ag 3|2.2|7|7|9|40U:50:41:42(qc=5)
REM 
CELL 1.54180    7.02156    7.02156    6.92841  114.26935  105.49249  109.32083
LATT -1
SFAC Se Ag 
Se     1 -0.2142544361381  0.1377846842863  0.1973809900678 1.0
Se     1 -0.0595963057815 -0.4116354262058 -0.1973809900678 1.0
Se     1  0.3782057870286  0.4893939483668  0.3167805610347 1.0
Se     1  0.1726133873321  0.0614252259939 -0.3167805610347 1.0
Ag     2  0.7175662546352 -0.1127211233632  0.4087258001239 1.0
Ag     2 -0.5214469234871  0.3088404545113 -0.4087258001239 1.0
Ag     2 -0.4265337330727 -0.1779823922652 -0.2452091871432 1.0
Ag     2  0.0672267948780 -0.1813245459295  0.2452091871432 1.0
Ag     2  0.3471669948361  0.0127155454970  0.0667646768555 1.0
Ag     2 -0.0540491313585  0.2804023179807 -0.0667646768555 1.0
Ag     2 -0.3525815689003  0.4184900237516  0.0816562937236 1.0
Ag     2  0.3368337300281 -0.4342378626239 -0.0816562937236 1.0
END
