TITL 4Ag2Se-200724-045853-9f8df2 0.0007 243.245969 -4.61321606E+004 0 0 12 (P-1) n - 1
REM
REM Run started: Fri, 24 Jul 2020 09:05:39 +0100 in /rds/user/bz240/hpc-work/airss-fw/launch_tmp/launcher_2020-07-24-03-58-52-077685
REM CASTEP 19.11| from code version Version unavailable
REM Functional Perdew Burke Ernzerhof Relativity Koelling-Harmon Dispersion off
REM Cut-off 300.0000 eV Grid scale 1.7500 Gmax 15.5288 1/A FBSC none
REM MP grid 4 3 3 Offset 0.000 0.000 0.000 No. kpts 18 Spacing 0.07
REM Total runtime: 14855.4 s
REM Overall efficiency: 97.0833 %
REM
REM 4Ag2Se.cell (6404a18c6b5dc90313b5c56acf317f23)
REM
REM compiler GCC version 4.8.5 20150623 (Red Hat 4.8.5-39)
REM options -cpp -mtune=generic -march=x86-64 -g -Og
REM COMMAND_LINE
REM seed -1747969233 -1509909469 1452438179 -23082285 598949796 -546153479 -1755348010 -524906318 -426532583 -66212596 1275157967 -1520949358
REM
REM Se 3|2.1|7|7|9|40:41:32(qc=5)
REM Ag 3|2.2|7|7|9|40U:50:41:42(qc=5)
REM 
CELL 1.54180    5.38701    7.09827    7.53441   90.70323   72.16232   64.16545
LATT -1
SFAC Se Ag 
Se     1 -0.2299940260544 -0.1036401974223 -0.3058243589366 1.0
Se     1  0.2299940260544  0.1036401974223  0.3058243589366 1.0
Se     1  0.0255301999406 -0.2744232512634  0.1788247009326 1.0
Se     1 -0.0255301999406  0.2744232512634 -0.1788247009326 1.0
Ag     2 -0.2516941467591 -0.5491638626899 -0.4343142750970 1.0
Ag     2  0.2516941467591  0.5491638626899  0.4343142750970 1.0
Ag     2  0.1765150362332 -0.4396673880485 -0.1777284074944 1.0
Ag     2 -0.1765150362332  0.4396673880485  0.1777284074944 1.0
Ag     2 -0.5229101489102 -0.2304306497292 -0.0291314330298 1.0
Ag     2  0.5229101489102  0.2304306497292  0.0291314330298 1.0
Ag     2  0.3188928241728 -0.1205720494549 -0.3758821173179 1.0
Ag     2 -0.3188928241728  0.1205720494549  0.3758821173179 1.0
END
