TITL 4Ag2Se-200724-071355-97e389 -0.0134 246.938057 -4.61324464E+004 0 0 12 (P21/c) n - 1
REM
REM Run started: Fri, 24 Jul 2020 08:37:36 +0100 in /scratch/scratch/uccabz1/launch_tmp/launcher_2020-07-24-06-13-53-090772
REM CASTEP 19.11| from code version Version unavailable
REM Functional Perdew Burke Ernzerhof Relativity Koelling-Harmon Dispersion off
REM Cut-off 300.0000 eV Grid scale 1.7500 Gmax 15.5288 1/A FBSC none
REM MP grid 3 3 3 Offset 0.000 0.000 0.000 No. kpts 10 Spacing 0.07
REM Total runtime: 5083.2 s
REM Overall efficiency: 93.7 %
REM
REM 4Ag2Se.cell (6404a18c6b5dc90313b5c56acf317f23)
REM
REM compiler GCC version 4.9.2
REM options -cpp -iprefix /scratch/UCL/applications/gcc/4.9.2/bin/../lib/gcc/x86_64-unknown-linux-gnu/4.9.2/ -mtune=corei7 -march=x86-64 -g -O2
REM COMMAND_LINE
REM seed 1519732960 928760635 -266685327 398710697 1794544485 -69032313 -1999467521 -1631027687 982970774 -1840588509 346687967 1617780205
REM
REM Se 3|2.1|7|7|9|40:41:32(qc=5)
REM Ag 3|2.2|7|7|9|40U:50:41:42(qc=5)
REM 
CELL 1.54180    5.38720    6.50200    7.11042   97.48610   90.00000   90.00000
LATT -1
SFAC Se Ag 
Se     1  0.1406943944596 -0.4930308961701 -0.2092449169980 1.0
Se     1 -0.3593056055404  0.4930308961701  0.2092449169980 1.0
Se     1  0.2718596055404  0.0069691038299  0.2907550830020 1.0
Se     1 -0.2281403944596 -0.0069691038299 -0.2907550830020 1.0
Ag     2 -0.0178809395086  0.1627270454888  0.0416174197824 1.0
Ag     2  0.4821190604914 -0.1627270454888 -0.0416174197824 1.0
Ag     2 -0.3635545598919  0.4044899800385 -0.1892099123592 1.0
Ag     2  0.1364454401081 -0.4044899800385  0.1892099123592 1.0
Ag     2 -0.2238914401081 -0.0955100199615  0.3107900876408 1.0
Ag     2  0.2761085598919  0.0955100199615 -0.3107900876408 1.0
Ag     2 -0.0695650604914  0.3372729545112  0.4583825802176 1.0
Ag     2  0.4304349395086 -0.3372729545112 -0.4583825802176 1.0
END
