TITL 4Ag2Se-200724-073841-742f96 -0.0284 238.919675 -4.61326630E+004 0 0 12 (P2/c) n - 1
REM
REM Run started: Fri, 24 Jul 2020 08:55:59 +0100 in /rds/user/bz240/hpc-work/airss-fw/launch_tmp/launcher_2020-07-24-06-38-39-019925
REM CASTEP 19.11| from code version Version unavailable
REM Functional Perdew Burke Ernzerhof Relativity Koelling-Harmon Dispersion off
REM Cut-off 300.0000 eV Grid scale 1.7500 Gmax 15.5288 1/A FBSC none
REM MP grid 3 2 3 Offset 0.000 0.000 0.000 No. kpts 6 Spacing 0.07
REM Total runtime: 4807.29 s
REM Overall efficiency: 94.8 %
REM
REM 4Ag2Se.cell (6404a18c6b5dc90313b5c56acf317f23)
REM
REM compiler GCC version 4.8.5 20150623 (Red Hat 4.8.5-39)
REM options -cpp -mtune=generic -march=x86-64 -g -Og
REM COMMAND_LINE
REM seed -1106562355 203795802 -394318423 -976519680 -801301871 -217106275 -60314823 -759319929 1628098104 -93279661 2051432921 -943326124
REM
REM Se 3|2.1|7|7|9|40:41:32(qc=5)
REM Ag 3|2.2|7|7|9|40U:50:41:42(qc=5)
REM 
CELL 1.54180    5.06118    7.24988    6.51132   90.00000   90.00000   90.01366
LATT -1
SFAC Se Ag 
Se     1 -0.0662896189938  0.4583840700783 -0.1912808161094 1.0
Se     1  0.4337103810062  0.4583840700783  0.1912808161094 1.0
Se     1 -0.4686567998204 -0.1258894929576 -0.1915026926521 1.0
Se     1  0.0313432001796 -0.1258894929576  0.1915026926521 1.0
Ag     2 -0.4457166809181 -0.1764578364974  0.3797386681003 1.0
Ag     2  0.0542833190819 -0.1764578364974 -0.3797386681003 1.0
Ag     2  0.2321035117564  0.1647322905567 -0.1369468988175 1.0
Ag     2 -0.2678964882436  0.1647322905567  0.1369468988175 1.0
Ag     2 -0.0848774463292 -0.5020198054240  0.3776021309196 1.0
Ag     2  0.4151225536708 -0.5020198054240 -0.3776021309196 1.0
Ag     2  0.2365049343052  0.1631988742440  0.3819100288456 1.0
Ag     2 -0.2634950656948  0.1631988742440 -0.3819100288456 1.0
END
