TITL 4Ag2Se-200724-053131-62a56b -0.0117 252.646604 -4.61325482E+004 0 0 12 (I-4) n - 1
REM
REM Run started: Fri, 24 Jul 2020 06:34:25 +0100 in /rds/user/bz240/hpc-work/airss-fw/launch_tmp/launcher_2020-07-24-04-31-29-544432
REM CASTEP 19.11| from code version Version unavailable
REM Functional Perdew Burke Ernzerhof Relativity Koelling-Harmon Dispersion off
REM Cut-off 300.0000 eV Grid scale 1.7500 Gmax 15.5288 1/A FBSC none
REM MP grid 3 3 4 Offset 0.000 0.000 0.000 No. kpts 12 Spacing 0.07
REM Total runtime: 4170.16 s
REM Overall efficiency: 96.6667 %
REM
REM 4Ag2Se.cell (6404a18c6b5dc90313b5c56acf317f23)
REM
REM compiler GCC version 4.8.5 20150623 (Red Hat 4.8.5-39)
REM options -cpp -mtune=generic -march=x86-64 -g -Og
REM COMMAND_LINE
REM seed 1702134378 1945886564 -1781249952 922293809 -2086424736 884897802 765343381 1468498080 2139194867 750881336 -557304371 -695885453
REM
REM Se 3|2.1|7|7|9|40:41:32(qc=5)
REM Ag 3|2.2|7|7|9|40U:50:41:42(qc=5)
REM 
CELL 1.54180    7.36389    7.36389    6.98715  121.80023  121.80023   90.00000
LATT -1
SFAC Se Ag 
Se     1 -0.2391412247068  0.3622365061915  0.2193014304951 1.0
Se     1  0.4584426552019 -0.1429350756964  0.2193014304951 1.0
Se     1 -0.3622365061915 -0.4584426552019 -0.2193014304951 1.0
Se     1  0.1429350756964  0.2391412247068 -0.2193014304951 1.0
Ag     2 -0.0490344497602 -0.2056798975226  0.4623456739822 1.0
Ag     2 -0.4886198762576 -0.3319744284952  0.4623456739822 1.0
Ag     2  0.2056798975226  0.4886198762576 -0.4623456739822 1.0
Ag     2  0.3319744284952  0.0490344497602 -0.4623456739822 1.0
Ag     2  0.3132349116094  0.1704294422692  0.1640896378473 1.0
Ag     2 -0.1491452737621 -0.0063398044219  0.1640896378473 1.0
Ag     2 -0.1704294422692  0.1491452737621 -0.1640896378473 1.0
Ag     2  0.0063398044219 -0.3132349116094 -0.1640896378473 1.0
END
