TITL 4Ag2Se-200724-063833-a7e43e 0.0102 269.527796 -4.61314094E+004 0 0 12 (I41) n - 1
REM
REM Run started: Fri, 24 Jul 2020 07:40:31 +0100 in /scratch/scratch/uccabz1/launch_tmp/launcher_2020-07-24-05-38-31-657204
REM CASTEP 19.11| from code version Version unavailable
REM Functional Perdew Burke Ernzerhof Relativity Koelling-Harmon Dispersion off
REM Cut-off 300.0000 eV Grid scale 1.7500 Gmax 15.5288 1/A FBSC none
REM MP grid 4 2 2 Offset 0.000 0.000 0.000 No. kpts 8 Spacing 0.07
REM Total runtime: 4011.41 s
REM Overall efficiency: 95.6667 %
REM
REM 4Ag2Se.cell (6404a18c6b5dc90313b5c56acf317f23)
REM
REM compiler GCC version 4.9.2
REM options -cpp -iprefix /scratch/UCL/applications/gcc/4.9.2/bin/../lib/gcc/x86_64-unknown-linux-gnu/4.9.2/ -mtune=corei7 -march=x86-64 -g -O2
REM COMMAND_LINE
REM seed 490544391 876158614 -1618856353 -1549145788 412629643 -1849056324 1956037494 1537611211 -1466252173 -1041871574 697040433 2114948735
REM
REM Se 3|2.1|7|7|9|40:41:32(qc=5)
REM Ag 3|2.2|7|7|9|40U:50:41:42(qc=5)
REM 
CELL 1.54180    4.27041    8.22644    8.22644   86.13715   74.95639   74.95639
LATT -1
SFAC Se Ag 
Se     1  0.3543945378354 -0.1905845180983 -0.1866877505872 1.0
Se     1 -0.0228775308501  0.1905843180983  0.1866875505872 1.0
Se     1  0.4138101197371 -0.6866877505872 -0.3094156819017 1.0
Se     1  0.4177068872481 -0.3133124494128  0.3094154819017 1.0
Ag     2  0.0181544257506  0.1005421231512 -0.2876252416840 1.0
Ag     2 -0.1689284927823 -0.1005423231512  0.2876250416840 1.0
Ag     2  0.3686966489017 -0.7876252416840  0.3994576768488 1.0
Ag     2 -0.0194707159334 -0.2123749583160 -0.3994578768488 1.0
Ag     2 -0.2030304555180 -0.2571188109566  0.0023091820390 1.0
Ag     2 -0.4578398844356  0.2571186109566 -0.0023093820390 1.0
Ag     2 -0.2101491664746  0.5023091820390 -0.2428813890434 1.0
Ag     2  0.0492788265210 -0.5023093820390  0.2428811890434 1.0
END
