TITL 4Ag2Se-200724-052051-7b21e0 0.0065 254.120065 -4.61313687E+004 0 0 12 (Cm) n - 1
REM
REM Run started: Fri, 24 Jul 2020 08:14:19 +0100 in /scratch/scratch/uccabz1/launch_tmp/launcher_2020-07-24-04-20-49-692634
REM CASTEP 19.11| from code version Version unavailable
REM Functional Perdew Burke Ernzerhof Relativity Koelling-Harmon Dispersion off
REM Cut-off 300.0000 eV Grid scale 1.7500 Gmax 15.5288 1/A FBSC none
REM MP grid 3 3 3 Offset 0.000 0.000 0.000 No. kpts 10 Spacing 0.07
REM Total runtime: 10521.5 s
REM Overall efficiency: 96.0909 %
REM
REM 4Ag2Se.cell (6404a18c6b5dc90313b5c56acf317f23)
REM
REM compiler GCC version 4.9.2
REM options -cpp -iprefix /scratch/UCL/applications/gcc/4.9.2/bin/../lib/gcc/x86_64-unknown-linux-gnu/4.9.2/ -mtune=corei7 -march=x86-64 -g -O2
REM COMMAND_LINE
REM seed 694590348 1493013370 317179230 793219570 -816382980 1453688977 -844375846 -1833715120 -1988880366 -1617680857 -953605189 1667752754
REM
REM Se 3|2.1|7|7|9|40:41:32(qc=5)
REM Ag 3|2.2|7|7|9|40U:50:41:42(qc=5)
REM 
CELL 1.54180    6.62714    6.71411    6.61517   86.57666   83.05057   60.42757
LATT -1
SFAC Se Ag 
Se     1 -0.4507702734730 -0.3132972561279  0.1330796112069 1.0
Se     1  0.2359325703991  0.3132970561279  0.1330796112069 1.0
Se     1 -0.1901973383275  0.3223608834776 -0.4272692091862 1.0
Se     1  0.1321636451501 -0.3223610834776 -0.4272692091862 1.0
Ag     2 -0.2623193262459 -0.2430593518417  0.4274983174032 1.0
Ag     2  0.4946214219124  0.2430591518417  0.4274983174032 1.0
Ag     2 -0.1787673531751 -0.2473065718292 -0.1329647419031 1.0
Ag     2 -0.4260738250042  0.2473063718291 -0.1329647419031 1.0
Ag     2 -0.1323021626102  0.2401682581298  0.1509985262970 1.0
Ag     2  0.1078661955196 -0.2401684581298  0.1509985262970 1.0
Ag     2  0.4068618306006 -0.2452306153465 -0.2369821038178 1.0
Ag     2  0.1616313152542  0.2452304153465 -0.2369821038178 1.0
END
