TITL 4Ag2Se-200724-092048-a49429 0.0193 258.716093 -4.61325836E+004 0 0 12 (Fddd) n - 1
REM
REM Run started: Fri, 24 Jul 2020 09:42:05 +0100 in /scratch/scratch/uccabz1/launch_tmp/launcher_2020-07-24-08-20-46-905127
REM CASTEP 19.11| from code version Version unavailable
REM Functional Perdew Burke Ernzerhof Relativity Koelling-Harmon Dispersion off
REM Cut-off 300.0000 eV Grid scale 1.7500 Gmax 15.5288 1/A FBSC none
REM MP grid 3 3 3 Offset 0.000 0.000 0.000 No. kpts 8 Spacing 0.07
REM Total runtime: 2130.34 s
REM Overall efficiency: 94.8 %
REM
REM 4Ag2Se.cell (6404a18c6b5dc90313b5c56acf317f23)
REM
REM compiler GCC version 4.9.2
REM options -cpp -iprefix /scratch/UCL/applications/gcc/4.9.2/bin/../lib/gcc/x86_64-unknown-linux-gnu/4.9.2/ -mtune=corei7 -march=x86-64 -g -O2
REM COMMAND_LINE
REM seed -1525899542 -664035479 -1047096558 -1038209788 -164666747 -322637739 151864977 -1843057913 -1421858308 -1072746847 1635933686 1496392865
REM
REM Se 3|2.1|7|7|9|40:41:32(qc=5)
REM Ag 3|2.2|7|7|9|40U:50:41:42(qc=5)
REM 
CELL 1.54180    6.43977    6.43977    7.67253  113.72851  113.72851   92.35725
LATT -1
SFAC Se Ag 
Se     1  0.4018775320958  0.1223631033447 -0.4745149612372 1.0
Se     1 -0.1223631033447 -0.4018775320958  0.4745149612372 1.0
Se     1  0.1531219354181  0.3736075066670  0.0254850387628 1.0
Se     1 -0.3736075066670 -0.1531219354181 -0.0254850387628 1.0
Ag     2  0.0118389449399 -0.2467390265493  0.2400877234011 1.0
Ag     2  0.2467390265493 -0.0118389449399 -0.2400877234011 1.0
Ag     2  0.2368267499503  0.4782487784612 -0.2599122765989 1.0
Ag     2 -0.4782487784612 -0.2368267499503  0.2599122765989 1.0
Ag     2  0.0165420099673  0.2173650102075  0.2582514801507 1.0
Ag     2 -0.2173650102075 -0.0165420099673 -0.2582514801507 1.0
Ag     2 -0.2091135300568 -0.5082905298165 -0.2417485198493 1.0
Ag     2  0.5082905298165  0.2091135300568  0.2417485198493 1.0
END
