TITL 4Ag2Se-200724-054218-d0e15d -0.0586 267.368648 -4.61321522E+004 0 0 12 (P21) n - 1
REM
REM Run started: Fri, 24 Jul 2020 07:08:06 +0100 in /rds/user/bz240/hpc-work/airss-fw/launch_tmp/launcher_2020-07-24-04-42-16-570699
REM CASTEP 19.11| from code version Version unavailable
REM Functional Perdew Burke Ernzerhof Relativity Koelling-Harmon Dispersion off
REM Cut-off 300.0000 eV Grid scale 1.7500 Gmax 15.5288 1/A FBSC none
REM MP grid 4 4 1 Offset 0.000 0.000 0.000 No. kpts 8 Spacing 0.07
REM Total runtime: 5180.96 s
REM Overall efficiency: 92.75 %
REM
REM 4Ag2Se.cell (6404a18c6b5dc90313b5c56acf317f23)
REM
REM compiler GCC version 4.8.5 20150623 (Red Hat 4.8.5-39)
REM options -cpp -mtune=generic -march=x86-64 -g -Og
REM COMMAND_LINE
REM seed 174110669 -385459749 596166341 -896195100 -894708040 52702712 1051102989 -663814925 -1678060651 890246387 -1560050727 1315142045
REM
REM Se 3|2.1|7|7|9|40:41:32(qc=5)
REM Ag 3|2.2|7|7|9|40U:50:41:42(qc=5)
REM 
CELL 1.54180    4.32470    4.37462   15.87775   90.00000   90.00000  117.11771
LATT -1
SFAC Se Ag 
Se     1 -0.0928060018201 -0.0618532062068 -0.1795442207433 1.0
Se     1  0.0928060018201  0.0618532062068  0.3204557792567 1.0
Se     1 -0.5748937867790 -0.2676349239878  0.0817944691647 1.0
Se     1  0.5748937867790  0.2676349239878 -0.4182055308353 1.0
Ag     2  0.7770906074646  0.4386578680229  0.2520305969732 1.0
Ag     2 -0.7770906074646 -0.4386578680229 -0.2479694030268 1.0
Ag     2 -0.0074240757976  0.1823103813484 -0.0084897254602 1.0
Ag     2  0.0074240757976 -0.1823103813484  0.4915102745398 1.0
Ag     2  0.6609687299900  0.1698093667637  0.4186097941674 1.0
Ag     2 -0.6609687299900 -0.1698093667637 -0.0813902058326 1.0
Ag     2 -0.1269831868915 -0.0692130569915 -0.3442993141017 1.0
Ag     2  0.1269831868915  0.0692130569915  0.1557006858983 1.0
END
