TITL 4Ag2Se_TETRA-200724-144632-6aaedd -0.0248 241.376863 -4.61324472E+004 0 0 12 (P21) n - 1
REM
REM Run started: Fri, 24 Jul 2020 15:54:57 +0100 in /scratch/scratch/uccabz1/launch_tmp/launcher_2020-07-24-13-46-30-802810
REM CASTEP 19.11| from code version Version unavailable
REM Functional Perdew Burke Ernzerhof Relativity Koelling-Harmon Dispersion off
REM Cut-off 300.0000 eV Grid scale 1.7500 Gmax 15.5288 1/A FBSC none
REM MP grid 3 3 3 Offset 0.000 0.000 0.000 No. kpts 10 Spacing 0.07
REM Total runtime: 4551.59 s
REM Overall efficiency: 95.1667 %
REM
REM 4Ag2Se_TETRA.cell (4020362940262d3df87d4014b41eb05e)
REM
REM compiler GCC version 4.9.2
REM options -cpp -iprefix /scratch/UCL/applications/gcc/4.9.2/bin/../lib/gcc/x86_64-unknown-linux-gnu/4.9.2/ -mtune=corei7 -march=x86-64 -g -O2
REM COMMAND_LINE
REM seed -756688499 -1562485074 -1939231907 -2103654202 1853745514 -152336466 912362502 -1472438241 -1190710005 315509833 2089583411 1362713893
REM
REM Se 3|2.1|7|7|9|40:41:32(qc=5)
REM Ag 3|2.2|7|7|9|40U:50:41:42(qc=5)
REM 
CELL 1.54180    6.63113    7.12079    5.11753   92.69576   90.00000   90.00000
LATT -1
SFAC Se Ag 
Se     1  0.4369696001752 -0.4569135928255  0.2513412140092 1.0
Se     1 -0.0630303998248  0.4569135928255 -0.2513412140092 1.0
Se     1 -0.0786079571925 -0.0425381426095  0.3062030259064 1.0
Se     1  0.4213920428075  0.0425381426095 -0.3062030259064 1.0
Ag     2 -0.4848152114089  0.4246806219164 -0.2627721656006 1.0
Ag     2  0.0151847885911 -0.4246806219164  0.2627721656006 1.0
Ag     2 -0.2803478755265 -0.2218558334412 -0.2856745091046 1.0
Ag     2  0.2196521244735  0.2218558334412  0.2856745091046 1.0
Ag     2  0.2284044550370 -0.2761140725179 -0.1740292024490 1.0
Ag     2 -0.2715955449630  0.2761140725179  0.1740292024490 1.0
Ag     2  0.0142047889157  0.0720511584787 -0.1844694896549 1.0
Ag     2 -0.4857952110843 -0.0720511584787  0.1844694896549 1.0
END
