TITL 4Ag2Se_TETRA-200724-162755-d46cf2 0.1059 253.520999 -4.61312765E+004 0 0 12 (Pcca) n - 1
REM
REM Run started: Fri, 24 Jul 2020 17:21:26 +0100 in /scratch/scratch/uccabz1/launch_tmp/launcher_2020-07-24-15-27-54-027044
REM CASTEP 19.11| from code version Version unavailable
REM Functional Perdew Burke Ernzerhof Relativity Koelling-Harmon Dispersion off
REM Cut-off 300.0000 eV Grid scale 1.7500 Gmax 15.5288 1/A FBSC none
REM MP grid 4 3 2 Offset 0.000 0.000 0.000 No. kpts 4 Spacing 0.07
REM Total runtime: 3546.67 s
REM Overall efficiency: 93.75 %
REM
REM 4Ag2Se_TETRA.cell (4020362940262d3df87d4014b41eb05e)
REM
REM compiler GCC version 4.9.2
REM options -cpp -iprefix /scratch/UCL/applications/gcc/4.9.2/bin/../lib/gcc/x86_64-unknown-linux-gnu/4.9.2/ -mtune=corei7 -march=x86-64 -g -O2
REM COMMAND_LINE
REM seed 1492529867 -1870036248 1728736626 -1689935507 -1479785495 -1886886007 2065380378 -663711224 -592831726 -1748165996 -1408707190 -1473795275
REM
REM Se 3|2.1|7|7|9|40:41:32(qc=5)
REM Ag 3|2.2|7|7|9|40U:50:41:42(qc=5)
REM 
CELL 1.54180    4.08855    7.07850    8.75997   90.00000   90.00000   90.00000
LATT -1
SFAC Se Ag 
Se     1  0.0429129000000 -0.2500000000000 -0.3978937833157 1.0
Se     1  0.0429129000000  0.2500000000000  0.3978937833157 1.0
Se     1  0.0429129000000 -0.2500000000000  0.1021062166843 1.0
Se     1  0.0429129000000  0.2500000000000 -0.1021062166843 1.0
Ag     2  0.3139499722491  0.0951974074529 -0.3487461886831 1.0
Ag     2  0.3139499722491 -0.0951974074529  0.3487461886831 1.0
Ag     2  0.3139499722491  0.4048025925471  0.1512538113169 1.0
Ag     2  0.3139499722491 -0.4048025925471 -0.1512538113169 1.0
Ag     2 -0.2281241722491  0.4048025925471 -0.3487461886831 1.0
Ag     2 -0.2281241722491 -0.4048025925471  0.3487461886831 1.0
Ag     2 -0.2281241722491  0.0951974074529  0.1512538113169 1.0
Ag     2 -0.2281241722491 -0.0951974074529 -0.1512538113169 1.0
END
