TITL 4Ag2Se-200724-083642-02e128 -0.0740 243.824720 -4.61322493E+004 0 0 12 (C2) n - 1
REM
REM Run started: Fri, 24 Jul 2020 09:28:11 +0100 in /rds/user/bz240/hpc-work/airss-fw/launch_tmp/launcher_2020-07-24-07-36-41-177505
REM CASTEP 19.11| from code version Version unavailable
REM Functional Perdew Burke Ernzerhof Relativity Koelling-Harmon Dispersion off
REM Cut-off 300.0000 eV Grid scale 1.7500 Gmax 15.5288 1/A FBSC none
REM MP grid 3 3 2 Offset 0.000 0.000 0.000 No. kpts 5 Spacing 0.07
REM Total runtime: 3141.56 s
REM Overall efficiency: 84.375 %
REM
REM 4Ag2Se.cell (6404a18c6b5dc90313b5c56acf317f23)
REM
REM compiler GCC version 4.8.5 20150623 (Red Hat 4.8.5-39)
REM options -cpp -mtune=generic -march=x86-64 -g -Og
REM COMMAND_LINE
REM seed 404213377 -1510104308 868492509 575840936 875282052 -1780160965 -1102162422 25624231 -159004196 2093877335 1812945653 367596532
REM
REM Se 3|2.1|7|7|9|40:41:32(qc=5)
REM Ag 3|2.2|7|7|9|40U:50:41:42(qc=5)
REM 
CELL 1.54180    4.91909    6.56515    7.55015   90.00000   90.00000   90.33031
LATT -1
SFAC Se Ag 
Se     1  0.2588389899050 -0.2427451563649 -0.3744789427294 1.0
Se     1 -0.2588389899050  0.2427451563649 -0.3744789427294 1.0
Se     1  0.2411610100950  0.2427451563649  0.1255210572706 1.0
Se     1 -0.2411610100950 -0.2427451563649  0.1255210572706 1.0
Ag     2  0.2472066284946  0.3839149483433 -0.2049725928789 1.0
Ag     2 -0.2472066284946 -0.3839149483433 -0.2049725928789 1.0
Ag     2 -0.2527933715054  0.3839149483433  0.2950274071211 1.0
Ag     2  0.2527933715054 -0.3839149483433  0.2950274071211 1.0
Ag     2  0.2412050338363  0.1449041654982  0.4700782356083 1.0
Ag     2 -0.2412050338363 -0.1449041654982  0.4700782356083 1.0
Ag     2  0.2587949661637 -0.1449041654982 -0.0299217643917 1.0
Ag     2 -0.2587949661637  0.1449041654982 -0.0299217643917 1.0
END
