TITL 4Ag2Se-200724-052142-1eaeaf 0.0069 244.843002 -4.61325900E+004 0 0 12 (P-1) n - 1
REM
REM Run started: Fri, 24 Jul 2020 10:40:04 +0100 in /scratch/scratch/uccabz1/launch_tmp/launcher_2020-07-24-04-21-40-709870
REM CASTEP 19.11| from code version Version unavailable
REM Functional Perdew Burke Ernzerhof Relativity Koelling-Harmon Dispersion off
REM Cut-off 300.0000 eV Grid scale 1.7500 Gmax 15.5288 1/A FBSC none
REM MP grid 4 4 2 Offset 0.000 0.000 0.000 No. kpts 16 Spacing 0.07
REM Total runtime: 19261.7 s
REM Overall efficiency: 96.7692 %
REM
REM 4Ag2Se.cell (6404a18c6b5dc90313b5c56acf317f23)
REM
REM compiler GCC version 4.9.2
REM options -cpp -iprefix /scratch/UCL/applications/gcc/4.9.2/bin/../lib/gcc/x86_64-unknown-linux-gnu/4.9.2/ -mtune=corei7 -march=x86-64 -g -O2
REM COMMAND_LINE
REM seed -624133911 1012858006 -1779559972 1919458917 -1672171169 -1960260537 -1177976855 -1029907959 -2143441964 1721381906 -935737834 1662167483
REM
REM Se 3|2.1|7|7|9|40:41:32(qc=5)
REM Ag 3|2.2|7|7|9|40U:50:41:42(qc=5)
REM 
CELL 1.54180    4.12882    4.70238   14.05452  107.98977  102.28996  100.14592
LATT -1
SFAC Se Ag 
Se     1 -0.2422840446708 -0.3315470372855 -0.1157448787640 1.0
Se     1  0.2422840446708  0.3315470372855  0.1157448787640 1.0
Se     1 -0.1085039060606 -0.1989134490854 -0.4033130961139 1.0
Se     1  0.1085039060606  0.1989134490854  0.4033130961139 1.0
Ag     2 -0.5038172944192 -0.1468779965841 -0.2709421340398 1.0
Ag     2  0.5038172944192  0.1468779965841  0.2709421340398 1.0
Ag     2  0.4351442013390 -0.2098730616255  0.0509098606555 1.0
Ag     2 -0.4351442013390  0.2098730616255 -0.0509098606555 1.0
Ag     2  0.4731544273819  0.7528718016301  0.4028203966191 1.0
Ag     2 -0.4731544273819 -0.7528718016301 -0.4028203966191 1.0
Ag     2  0.1291351061417 -0.6745133808842 -0.2346099058718 1.0
Ag     2 -0.1291351061417  0.6745133808842  0.2346099058718 1.0
END
