TITL 4Ag2Se-200724-033711-7a85e5 0.0281 235.792216 -4.61323112E+004 0 0 12 (Ibam) n - 1
REM
REM Run started: Fri, 24 Jul 2020 06:04:54 +0100 in /rds/user/bz240/hpc-work/airss-fw/launch_tmp/launcher_2020-07-24-02-37-09-964606
REM CASTEP 19.11| from code version Version unavailable
REM Functional Perdew Burke Ernzerhof Relativity Koelling-Harmon Dispersion off
REM Cut-off 300.0000 eV Grid scale 1.7500 Gmax 15.5288 1/A FBSC none
REM MP grid 4 3 3 Offset 0.000 0.000 0.000 No. kpts 12 Spacing 0.07
REM Total runtime: 9202.16 s
REM Overall efficiency: 96.7 %
REM
REM 4Ag2Se.cell (6404a18c6b5dc90313b5c56acf317f23)
REM
REM compiler GCC version 4.8.5 20150623 (Red Hat 4.8.5-39)
REM options -cpp -mtune=generic -march=x86-64 -g -Og
REM COMMAND_LINE
REM seed 236039326 -1050798315 650701973 359131270 2037014470 637093242 48701475 2127057235 -591555902 567806474 237538015 -1072764457
REM
REM Se 3|2.1|7|7|9|40:41:32(qc=5)
REM Ag 3|2.2|7|7|9|40U:50:41:42(qc=5)
REM 
CELL 1.54180    4.58583    8.22371    8.22371  116.52134  106.10342  106.10342
LATT -1
SFAC Se Ag 
Se     1 -0.8105949079986 -0.4201600829460 -0.2072258733034 1.0
Se     1  0.3105949079986  0.2072258733034  0.4201600829460 1.0
Se     1  0.8105949079986  0.4201600829460  0.2072258733034 1.0
Se     1 -0.3105949079986 -0.2072258733034 -0.4201600829460 1.0
Ag     2 -0.6174263305382 -0.3810450925988  0.1465055922528 1.0
Ag     2  0.1174263305382 -0.1465055922528  0.3810450925988 1.0
Ag     2  0.6174263305382  0.3810450925988 -0.1465055922528 1.0
Ag     2 -0.1174263305382  0.1465055922528 -0.3810450925988 1.0
Ag     2 -0.1139041723602 -0.1996831411210 -0.0316624269972 1.0
Ag     2  0.6139041723602  0.0316624269972  0.1996831411210 1.0
Ag     2  0.1139041723602  0.1996831411210  0.0316624269972 1.0
Ag     2 -0.6139041723602 -0.0316624269972 -0.1996831411210 1.0
END
