TITL 4Ag2Se_TETRA-200724-125647-b08c08 -0.0089 253.384050 -4.61315891E+004 0 0 12 (Cc) n - 1
REM
REM Run started: Fri, 24 Jul 2020 14:12:50 +0100 in /scratch/scratch/uccabz1/launch_tmp/launcher_2020-07-24-11-56-44-619085
REM CASTEP 19.11| from code version Version unavailable
REM Functional Perdew Burke Ernzerhof Relativity Koelling-Harmon Dispersion off
REM Cut-off 300.0000 eV Grid scale 1.7500 Gmax 15.5288 1/A FBSC none
REM MP grid 3 3 3 Offset 0.000 0.000 0.000 No. kpts 10 Spacing 0.07
REM Total runtime: 5058.21 s
REM Overall efficiency: 95.0833 %
REM
REM 4Ag2Se_TETRA.cell (4020362940262d3df87d4014b41eb05e)
REM
REM compiler GCC version 4.9.2
REM options -cpp -iprefix /scratch/UCL/applications/gcc/4.9.2/bin/../lib/gcc/x86_64-unknown-linux-gnu/4.9.2/ -mtune=corei7 -march=x86-64 -g -O2
REM COMMAND_LINE
REM seed -521216957 -1504937260 -563880813 -1660379165 810798149 1946528972 85983482 -772098988 258056549 1872357858 -859727386 -545568833
REM
REM Se 3|2.1|7|7|9|40:41:32(qc=5)
REM Ag 3|2.2|7|7|9|40U:50:41:42(qc=5)
REM 
CELL 1.54180    6.80633    6.13462    6.13462   98.42176   90.05843   90.05843
LATT -1
SFAC Se Ag 
Se     1  0.3168512088178 -0.3643731684898  0.3312307603250 1.0
Se     1 -0.1831487911822  0.3312307603250 -0.3643731684898 1.0
Se     1 -0.1794818120726 -0.1425858827191  0.0892426081549 1.0
Se     1  0.3205181879274  0.0892426081549 -0.1425858827191 1.0
Ag     2 -0.0784136340046 -0.4147238523677  0.3537824775384 1.0
Ag     2  0.4215863659954  0.3537824775384 -0.4147238523677 1.0
Ag     2  0.4698336316503  0.0060714544805  0.2368133534711 1.0
Ag     2 -0.0301663683497  0.2368133534711  0.0060714544805 1.0
Ag     2 -0.4103402220438  0.4329581396816  0.0631587680712 1.0
Ag     2  0.0896597779562  0.0631587680712  0.4329581396816 1.0
Ag     2  0.1123119276530 -0.2926982792561 -0.2385795788901 1.0
Ag     2 -0.3876880723470 -0.2385795788901 -0.2926982792561 1.0
END
