TITL 4Ag2Se_TETRA-200724-134253-ab514d -0.0147 248.679705 -4.61313210E+004 0 0 12 (Cc) n - 1
REM
REM Run started: Fri, 24 Jul 2020 14:42:19 +0100 in /rds/user/bz240/hpc-work/airss-fw/launch_tmp/launcher_2020-07-24-12-42-50-738042
REM CASTEP 19.11| from code version Version unavailable
REM Functional Perdew Burke Ernzerhof Relativity Koelling-Harmon Dispersion off
REM Cut-off 300.0000 eV Grid scale 1.7500 Gmax 15.5288 1/A FBSC none
REM MP grid 3 3 3 Offset 0.000 0.000 0.000 No. kpts 10 Spacing 0.07
REM Total runtime: 3902.49 s
REM Overall efficiency: 73.9167 %
REM
REM 4Ag2Se_TETRA.cell (4020362940262d3df87d4014b41eb05e)
REM
REM compiler GCC version 4.8.5 20150623 (Red Hat 4.8.5-39)
REM options -cpp -mtune=generic -march=x86-64 -g -Og
REM COMMAND_LINE
REM seed -1362873656 1031250288 1931799010 1835339283 336758484 -852719849 -227895706 1282175186 -1889437798 -141569341 2121673374 1968229676
REM
REM Se 3|2.1|7|7|9|40:41:32(qc=5)
REM Ag 3|2.2|7|7|9|40U:50:41:42(qc=5)
REM 
CELL 1.54180    6.62015    6.17991    6.17991  100.24690   88.85881   88.85881
LATT -1
SFAC Se Ag 
Se     1 -0.1195714079460 -0.2317336583495  0.0772429383771 1.0
Se     1  0.3804285920540  0.0772429383771 -0.2317336583495 1.0
Se     1 -0.1192672327491  0.2899643980025 -0.4782863880774 1.0
Se     1  0.3807327672509 -0.4782863880774  0.2899643980025 1.0
Ag     2 -0.2789133468611 -0.3121129800232  0.4616753713724 1.0
Ag     2  0.2210866531389  0.4616753713724 -0.3121129800232 1.0
Ag     2 -0.2171255833671  0.0339221291723 -0.1877558983832 1.0
Ag     2  0.2828744166329 -0.1877558983832  0.0339221291723 1.0
Ag     2  0.4863419418881  0.1129829311450  0.3456113773895 1.0
Ag     2 -0.0136580581119  0.3456113773895  0.1129829311450 1.0
Ag     2 -0.3808929709647  0.4896044157853 -0.1484343364109 1.0
Ag     2  0.1191070290353 -0.1484343364109  0.4896044157853 1.0
END
