TITL 4Ag2Se_TETRA-200724-125646-183333 -0.0460 261.036921 -4.61324788E+004 0 0 12 (R3) n - 1
REM
REM Run started: Fri, 24 Jul 2020 13:45:08 +0100 in /scratch/scratch/uccabz1/launch_tmp/launcher_2020-07-24-11-56-44-619947
REM CASTEP 19.11| from code version Version unavailable
REM Functional Perdew Burke Ernzerhof Relativity Koelling-Harmon Dispersion off
REM Cut-off 300.0000 eV Grid scale 1.7500 Gmax 15.5288 1/A FBSC none
REM MP grid 3 3 3 Offset 0.000 0.000 0.000 No. kpts 6 Spacing 0.07
REM Total runtime: 3214.81 s
REM Overall efficiency: 93 %
REM
REM 4Ag2Se_TETRA.cell (4020362940262d3df87d4014b41eb05e)
REM
REM compiler GCC version 4.9.2
REM options -cpp -iprefix /scratch/UCL/applications/gcc/4.9.2/bin/../lib/gcc/x86_64-unknown-linux-gnu/4.9.2/ -mtune=corei7 -march=x86-64 -g -O2
REM COMMAND_LINE
REM seed 1383023650 -1597113830 -116124582 690140627 -1266658204 1826372965 -355338367 961769067 84384722 -199097867 1066257175 -115098251
REM
REM Se 3|2.1|7|7|9|40:41:32(qc=5)
REM Ag 3|2.2|7|7|9|40U:50:41:42(qc=5)
REM 
CELL 1.54180    6.39124    6.39124    6.39124   89.47524   89.47524   89.47524
LATT -1
SFAC Se Ag 
Se     1 -0.3248419433650  0.2285301197992  0.1125096082986 1.0
Se     1  0.1125096082986 -0.3248419433650  0.2285301197992 1.0
Se     1  0.2285301197992  0.1125096082986 -0.3248419433650 1.0
Se     1 -0.3611170405167 -0.3611170405167 -0.3611170405167 1.0
Ag     2  0.3564896153563 -0.5065618247238 -0.0712737551151 1.0
Ag     2 -0.0712737551151  0.3564896153563 -0.5065618247238 1.0
Ag     2 -0.5065618247238 -0.0712737551151  0.3564896153563 1.0
Ag     2 -0.0802016004210  0.5059658253447 -0.0903738484976 1.0
Ag     2 -0.0903738484976 -0.0802016004210  0.5059658253447 1.0
Ag     2  0.5059658253447 -0.0903738484976 -0.0802016004210 1.0
Ag     2  0.3958084679428  0.3958084679428  0.3958084679428 1.0
Ag     2  0.1379595758975  0.1379595758975  0.1379595758975 1.0
END
