TITL 4Ag2Se-200724-063735-9e01d9 -0.2639 254.427354 -4.61324958E+004 0 0 12 (C2) n - 1
REM
REM Run started: Fri, 24 Jul 2020 10:16:08 +0100 in /rds/user/bz240/hpc-work/airss-fw/launch_tmp/launcher_2020-07-24-05-37-33-435029
REM CASTEP 19.11| from code version Version unavailable
REM Functional Perdew Burke Ernzerhof Relativity Koelling-Harmon Dispersion off
REM Cut-off 300.0000 eV Grid scale 1.7500 Gmax 15.5288 1/A FBSC none
REM MP grid 4 4 2 Offset 0.000 0.000 0.000 No. kpts 10 Spacing 0.07
REM Total runtime: 14730.3 s
REM Overall efficiency: 75.3333 %
REM
REM 4Ag2Se.cell (6404a18c6b5dc90313b5c56acf317f23)
REM
REM compiler GCC version 4.8.5 20150623 (Red Hat 4.8.5-39)
REM options -cpp -mtune=generic -march=x86-64 -g -Og
REM COMMAND_LINE
REM seed -2026619928 2105473083 -1955566564 -582282368 -1716251912 -1823585759 -2098040666 1466872128 -533821515 268134691 132662529 1382242422
REM
REM Se 3|2.1|7|7|9|40:41:32(qc=5)
REM Ag 3|2.2|7|7|9|40U:50:41:42(qc=5)
REM 
CELL 1.54180    4.66597    4.66597   13.68798   82.06218   82.06218   59.86205
LATT -1
SFAC Se Ag 
Se     1 -0.4449955549240  0.2950969158598  0.3701821441690 1.0
Se     1  0.7049030841402 -0.5550044450760 -0.3701821441690 1.0
Se     1  0.0471193454604  0.1323532638428  0.1280629444120 1.0
Se     1 -0.1323532638428 -0.0471193454604 -0.1280629444120 1.0
Ag     2  0.1686199460418  0.2929831651228 -0.0685668429953 1.0
Ag     2 -0.2929831651228 -0.1686199460418  0.0685668429953 1.0
Ag     2  0.3461320877466  0.4716094641735  0.1780189322691 1.0
Ag     2  0.5283905358265 -0.3461320877466 -0.1780189322691 1.0
Ag     2  0.3047170147633  0.0223990051107 -0.4665837775005 1.0
Ag     2 -0.0223990051107 -0.3047170147633  0.4665837775005 1.0
Ag     2 -0.7070283934576 -0.0362626684793  0.3135750336305 1.0
Ag     2  0.0362626684793 -0.2929716065424 -0.3135750336305 1.0
END
