TITL 4Ag2Se_TETRA-200724-160847-be1bc9 0.0557 235.265178 -4.61317872E+004 0 0 12 (P42cm) n - 1
REM
REM Run started: Fri, 24 Jul 2020 16:18:14 +0100 in /scratch/scratch/uccabz1/launch_tmp/launcher_2020-07-24-15-08-46-170099
REM CASTEP 19.11| from code version Version unavailable
REM Functional Perdew Burke Ernzerhof Relativity Koelling-Harmon Dispersion off
REM Cut-off 300.0000 eV Grid scale 1.7500 Gmax 15.5288 1/A FBSC none
REM MP grid 3 3 2 Offset 0.000 0.000 0.000 No. kpts 3 Spacing 0.07
REM Total runtime: 643.37 s
REM Overall efficiency: 71.4 %
REM
REM 4Ag2Se_TETRA.cell (4020362940262d3df87d4014b41eb05e)
REM
REM compiler GCC version 4.9.2
REM options -cpp -iprefix /scratch/UCL/applications/gcc/4.9.2/bin/../lib/gcc/x86_64-unknown-linux-gnu/4.9.2/ -mtune=corei7 -march=x86-64 -g -O2
REM COMMAND_LINE
REM seed -254010619 1013626188 2070523587 -1887982530 -1278226008 2017412945 700584694 724117801 923795014 -2038995519 619654745 -1958947842
REM
REM Se 3|2.1|7|7|9|40:41:32(qc=5)
REM Ag 3|2.2|7|7|9|40U:50:41:42(qc=5)
REM 
CELL 1.54180    5.39685    5.39685    8.07751   90.00000   90.00000   90.00000
LATT -1
SFAC Se Ag 
Se     1 -0.2412078070011  0.2415313048056  0.3351765275878 1.0
Se     1  0.2412078070011 -0.2415313048056  0.3351765275878 1.0
Se     1 -0.2415313048056 -0.2412078070011 -0.1648234724122 1.0
Se     1  0.2415313048056  0.2412078070011 -0.1648234724122 1.0
Ag     2  0.3005135487424 -0.3000506513766 -0.3394378521642 1.0
Ag     2 -0.3005135487424  0.3000506513766 -0.3394378521642 1.0
Ag     2  0.3000506513766  0.3005135487424  0.1605621478358 1.0
Ag     2 -0.3000506513766 -0.3005135487424  0.1605621478358 1.0
Ag     2 -0.2138596306733 -0.2102010391068  0.5003005245764 1.0
Ag     2  0.2138596306733  0.2102010391068  0.5003005245764 1.0
Ag     2  0.2102010391068 -0.2138596306733  0.0003005245764 1.0
Ag     2 -0.2102010391068  0.2138596306733  0.0003005245764 1.0
END
