TITL 4Ag2Se_TETRA-200724-161935-dfce65 -0.0454 254.317193 -4.61308468E+004 0 0 12 (Pnc2) n - 1
REM
REM Run started: Fri, 24 Jul 2020 17:15:11 +0100 in /scratch/scratch/uccabz1/launch_tmp/launcher_2020-07-24-15-19-33-776347
REM CASTEP 19.11| from code version Version unavailable
REM Functional Perdew Burke Ernzerhof Relativity Koelling-Harmon Dispersion off
REM Cut-off 300.0000 eV Grid scale 1.7500 Gmax 15.5288 1/A FBSC none
REM MP grid 3 2 3 Offset 0.000 0.000 0.000 No. kpts 4 Spacing 0.07
REM Total runtime: 3690.92 s
REM Overall efficiency: 94.1667 %
REM
REM 4Ag2Se_TETRA.cell (4020362940262d3df87d4014b41eb05e)
REM
REM compiler GCC version 4.9.2
REM options -cpp -iprefix /scratch/UCL/applications/gcc/4.9.2/bin/../lib/gcc/x86_64-unknown-linux-gnu/4.9.2/ -mtune=corei7 -march=x86-64 -g -O2
REM COMMAND_LINE
REM seed -1087461208 -976195787 -744969934 -1232072728 -1157297448 -1754352246 1621620161 67037263 335528558 374496568 -1367444916 636406780
REM
REM Se 3|2.1|7|7|9|40:41:32(qc=5)
REM Ag 3|2.2|7|7|9|40U:50:41:42(qc=5)
REM 
CELL 1.54180    5.77999    7.56157    5.81884   90.00000   90.00000   90.00000
LATT -1
SFAC Se Ag 
Se     1 -0.4706551046813  0.2396815135036  0.3867733610688 1.0
Se     1  0.4706551046813 -0.2396815135036  0.3867733610688 1.0
Se     1 -0.0293448953187  0.2396815135036 -0.1132266389312 1.0
Se     1  0.0293448953187 -0.2396815135036 -0.1132266389312 1.0
Ag     2 -0.2386903730729 -0.4542761070170  0.1586468950255 1.0
Ag     2  0.2386903730729  0.4542761070170  0.1586468950255 1.0
Ag     2 -0.2613096269271 -0.4542761070170 -0.3413531049745 1.0
Ag     2  0.2613096269271  0.4542761070170 -0.3413531049745 1.0
Ag     2 -0.0193591247309  0.1912938875498  0.4195849439057 1.0
Ag     2  0.0193591247309 -0.1912938875498  0.4195849439057 1.0
Ag     2 -0.4806408752691  0.1912938875498 -0.0804150560943 1.0
Ag     2  0.4806408752691 -0.1912938875498 -0.0804150560943 1.0
END
