TITL 4Ag2Se_TETRA-200724-125754-c5f2ef -0.0047 249.200183 -4.61304334E+004 0 0 12 (Pc) n - 1
REM
REM Run started: Fri, 24 Jul 2020 13:57:23 +0100 in /scratch/scratch/uccabz1/launch_tmp/launcher_2020-07-24-11-57-52-331298
REM CASTEP 19.11| from code version Version unavailable
REM Functional Perdew Burke Ernzerhof Relativity Koelling-Harmon Dispersion off
REM Cut-off 300.0000 eV Grid scale 1.7500 Gmax 15.5288 1/A FBSC none
REM MP grid 4 3 2 Offset 0.000 0.000 0.000 No. kpts 6 Spacing 0.07
REM Total runtime: 3964.42 s
REM Overall efficiency: 93.9167 %
REM
REM 4Ag2Se_TETRA.cell (4020362940262d3df87d4014b41eb05e)
REM
REM compiler GCC version 4.9.2
REM options -cpp -iprefix /scratch/UCL/applications/gcc/4.9.2/bin/../lib/gcc/x86_64-unknown-linux-gnu/4.9.2/ -mtune=corei7 -march=x86-64 -g -O2
REM COMMAND_LINE
REM seed 617655560 274093394 -442264764 -1229362565 -727175996 -523808840 2073896569 -1028074525 -852352296 -1510209327 1886822933 2019869595
REM
REM Se 3|2.1|7|7|9|40:41:32(qc=5)
REM Ag 3|2.2|7|7|9|40U:50:41:42(qc=5)
REM 
CELL 1.54180    3.87092    6.46870   10.00058   84.35953   90.00000   90.00000
LATT -1
SFAC Se Ag 
Se     1  0.2417259023140  0.4382436275175  0.3476960191906 1.0
Se     1 -0.2417259023140 -0.0617563724825  0.3476960191906 1.0
Se     1  0.2430872338543 -0.1776203558019  0.0258908834089 1.0
Se     1 -0.2430872338543  0.3223796441981  0.0258908834089 1.0
Ag     2  0.2543021219750  0.1233603829089 -0.3172074154168 1.0
Ag     2 -0.2543021219750 -0.3766396170911 -0.3172074154168 1.0
Ag     2 -0.2632804802253 -0.3696485720505  0.1856288547482 1.0
Ag     2  0.2632804802253  0.1303514279495  0.1856288547482 1.0
Ag     2 -0.2468860236874 -0.0008390682468 -0.1332257262871 1.0
Ag     2  0.2468860236874 -0.5008390682468 -0.1332257262871 1.0
Ag     2  0.2501839625284 -0.2022928143272 -0.4875838156437 1.0
Ag     2 -0.2501839625284  0.2977071856728 -0.4875838156437 1.0
END
