TITL 4Ag2Se-200724-044914-d2e618 0.0370 258.307448 -4.61324030E+004 0 0 12 (R3) n - 1
REM
REM Run started: Fri, 24 Jul 2020 06:43:08 +0100 in /scratch/scratch/uccabz1/launch_tmp/launcher_2020-07-24-03-49-11-901127
REM CASTEP 19.11| from code version Version unavailable
REM Functional Perdew Burke Ernzerhof Relativity Koelling-Harmon Dispersion off
REM Cut-off 300.0000 eV Grid scale 1.7500 Gmax 15.5288 1/A FBSC none
REM MP grid 3 3 3 Offset 0.000 0.000 0.000 No. kpts 6 Spacing 0.07
REM Total runtime: 6859.74 s
REM Overall efficiency: 93.25 %
REM
REM 4Ag2Se.cell (6404a18c6b5dc90313b5c56acf317f23)
REM
REM compiler GCC version 4.9.2
REM options -cpp -iprefix /scratch/UCL/applications/gcc/4.9.2/bin/../lib/gcc/x86_64-unknown-linux-gnu/4.9.2/ -mtune=corei7 -march=x86-64 -g -O2
REM COMMAND_LINE
REM seed -1775688818 416950899 1779070825 -1766521979 -1066283853 1803369548 1751480323 1987813912 741468453 2044789815 -1314292108 1740087127
REM
REM Se 3|2.1|7|7|9|40:41:32(qc=5)
REM Ag 3|2.2|7|7|9|40U:50:41:42(qc=5)
REM 
CELL 1.54180    6.38399    6.38399    6.38399   85.93586   85.93586   85.93586
LATT -1
SFAC Se Ag 
Se     1 -0.1738969544987  0.3000043814886  0.2392105620988 1.0
Se     1  0.2392105620988 -0.1738969544987  0.3000043814886 1.0
Se     1  0.3000043814886  0.2392105620988 -0.1738969544987 1.0
Se     1 -0.2623631486285 -0.2623631486285 -0.2623631486285 1.0
Ag     2  0.3357974322286 -0.1838279594146 -0.2837444358330 1.0
Ag     2 -0.2837444358330  0.3357974322286 -0.1838279594146 1.0
Ag     2 -0.1838279594146 -0.2837444358330  0.3357974322286 1.0
Ag     2 -0.4607254226264  0.0567009309579  0.1703565206314 1.0
Ag     2  0.1703565206314 -0.4607254226264  0.0567009309579 1.0
Ag     2  0.0567009309579  0.1703565206314 -0.4607254226264 1.0
Ag     2 -0.0404422164826 -0.0404422164826 -0.0404422164826 1.0
Ag     2  0.4493316100784  0.4493316100784  0.4493316100784 1.0
END
