TITL 4Ag2Se-200724-072423-006772 0.0260 256.971414 -4.61329562E+004 0 0 12 (R3) n - 1
REM
REM Run started: Fri, 24 Jul 2020 08:19:33 +0100 in /rds/user/bz240/hpc-work/airss-fw/launch_tmp/launcher_2020-07-24-06-24-21-878654
REM CASTEP 19.11| from code version Version unavailable
REM Functional Perdew Burke Ernzerhof Relativity Koelling-Harmon Dispersion off
REM Cut-off 300.0000 eV Grid scale 1.7500 Gmax 15.5288 1/A FBSC none
REM MP grid 3 3 3 Offset 0.000 0.000 0.000 No. kpts 6 Spacing 0.07
REM Total runtime: 3328.71 s
REM Overall efficiency: 93.25 %
REM
REM 4Ag2Se.cell (6404a18c6b5dc90313b5c56acf317f23)
REM
REM compiler GCC version 4.8.5 20150623 (Red Hat 4.8.5-39)
REM options -cpp -mtune=generic -march=x86-64 -g -Og
REM COMMAND_LINE
REM seed -760509837 -770978064 1703660466 -91918814 397899934 -1630319627 -466463071 -1139128089 1312507139 -1138509642 -1243828235 -1858267895
REM
REM Se 3|2.1|7|7|9|40:41:32(qc=5)
REM Ag 3|2.2|7|7|9|40U:50:41:42(qc=5)
REM 
CELL 1.54180    6.35998    6.35998    6.35998   91.54615   91.54615   91.54615
LATT -1
SFAC Se Ag 
Se     1  0.4545809119707  0.3610557964547 -0.0795198011914 1.0
Se     1  0.3610557964547 -0.0795198011914  0.4545809119707 1.0
Se     1 -0.0795198011914  0.4545809119707  0.3610557964547 1.0
Se     1 -0.0103945737044 -0.0103945737044 -0.0103945737044 1.0
Ag     2  0.2879337897837 -0.2937130218213  0.0849189648228 1.0
Ag     2 -0.2937130218213  0.0849189648228  0.2879337897837 1.0
Ag     2  0.0849189648228  0.2879337897837 -0.2937130218213 1.0
Ag     2  0.0296512428060 -0.2602626979186 -0.3367673665406 1.0
Ag     2 -0.2602626979186 -0.3367673665406  0.0296512428060 1.0
Ag     2 -0.3367673665406  0.0296512428060 -0.2602626979186 1.0
Ag     2 -0.4039771509894 -0.4039771509894 -0.4039771509894 1.0
Ag     2  0.3237568063279  0.3237568063279  0.3237568063279 1.0
END
