TITL 4Ag2Se_TETRA-200724-174923-997203 -0.0335 260.314347 -4.61319338E+004 0 0 12 (Pc) n - 1
REM
REM Run started: Fri, 24 Jul 2020 18:40:40 +0100 in /scratch/scratch/uccabz1/launch_tmp/launcher_2020-07-24-16-49-20-974665
REM CASTEP 19.11| from code version Version unavailable
REM Functional Perdew Burke Ernzerhof Relativity Koelling-Harmon Dispersion off
REM Cut-off 300.0000 eV Grid scale 1.7500 Gmax 15.5288 1/A FBSC none
REM MP grid 3 3 2 Offset 0.000 0.000 0.000 No. kpts 6 Spacing 0.07
REM Total runtime: 3417.38 s
REM Overall efficiency: 93.25 %
REM
REM 4Ag2Se_TETRA.cell (4020362940262d3df87d4014b41eb05e)
REM
REM compiler GCC version 4.9.2
REM options -cpp -iprefix /scratch/UCL/applications/gcc/4.9.2/bin/../lib/gcc/x86_64-unknown-linux-gnu/4.9.2/ -mtune=corei7 -march=x86-64 -g -O2
REM COMMAND_LINE
REM seed -768265281 -1872560517 1491626101 1584000978 -892368113 1154023707 2063240047 -1389101782 408509136 1572196612 1303982870 131364447
REM
REM Se 3|2.1|7|7|9|40:41:32(qc=5)
REM Ag 3|2.2|7|7|9|40U:50:41:42(qc=5)
REM 
CELL 1.54180    6.26738    5.48499    7.57424   90.00000   91.24923   90.00000
LATT -1
SFAC Se Ag 
Se     1  0.4252682443895  0.2711506939468  0.2894944157292 1.0
Se     1 -0.0747317556105 -0.2711506939468  0.2894944157292 1.0
Se     1 -0.0519044634703  0.2674206729607 -0.1461701219187 1.0
Se     1  0.4480955365297 -0.2674206729607 -0.1461701219187 1.0
Ag     2  0.0070152096007 -0.2207751804766 -0.2300065551349 1.0
Ag     2 -0.4929847903993  0.2207751804766 -0.2300065551349 1.0
Ag     2  0.1615761083851  0.0519454986264 -0.5038320636153 1.0
Ag     2 -0.3384238916149 -0.0519454986264 -0.5038320636153 1.0
Ag     2 -0.3092604844419  0.0187822527302  0.0778996019772 1.0
Ag     2  0.1907395155581 -0.0187822527302  0.0778996019772 1.0
Ag     2  0.3401538855369 -0.4321812642761 -0.4586250770375 1.0
Ag     2 -0.1598461144631  0.4321812642761 -0.4586250770375 1.0
END
