TITL 4Ag2Se_TETRA-200724-172823-8990f4 0.0033 254.352395 -4.61306974E+004 0 0 12 (C2) n - 1
REM
REM Run started: Fri, 24 Jul 2020 18:31:55 +0100 in /rds/user/bz240/hpc-work/airss-fw/launch_tmp/launcher_2020-07-24-16-28-21-770680
REM CASTEP 19.11| from code version Version unavailable
REM Functional Perdew Burke Ernzerhof Relativity Koelling-Harmon Dispersion off
REM Cut-off 300.0000 eV Grid scale 1.7500 Gmax 15.5288 1/A FBSC none
REM MP grid 3 3 3 Offset 0.000 0.000 0.000 No. kpts 10 Spacing 0.07
REM Total runtime: 4182.55 s
REM Overall efficiency: 74.8333 %
REM
REM 4Ag2Se_TETRA.cell (4020362940262d3df87d4014b41eb05e)
REM
REM compiler GCC version 4.8.5 20150623 (Red Hat 4.8.5-39)
REM options -cpp -mtune=generic -march=x86-64 -g -Og
REM COMMAND_LINE
REM seed 1133816270 880749849 -456651052 -668363561 1919349791 -403732212 986147610 -503544356 1227254805 1398083913 -868963586 1928186874
REM
REM Se 3|2.1|7|7|9|40:41:32(qc=5)
REM Ag 3|2.2|7|7|9|40U:50:41:42(qc=5)
REM 
CELL 1.54180    6.47185    6.27381    6.27381   90.88555   87.88217   87.88217
LATT -1
SFAC Se Ag 
Se     1  0.4863014805839  0.3341630463040  0.2045534951188 1.0
Se     1 -0.4863014805839 -0.2045534951188 -0.3341630463040 1.0
Se     1  0.0129174019983 -0.4530935035800 -0.0980141689012 1.0
Se     1 -0.0129174019983  0.0980141689012  0.4530935035800 1.0
Ag     2 -0.2908846896513  0.3568645978293 -0.2904744263248 1.0
Ag     2  0.2908846896513  0.2904744263248 -0.3568645978293 1.0
Ag     2 -0.1431204319352  0.4802876605512  0.2862963080720 1.0
Ag     2  0.1431204319352 -0.2862963080720 -0.4802876605512 1.0
Ag     2  0.1714583204788  0.1270481523999  0.0618979267171 1.0
Ag     2 -0.1714583204788 -0.0618979267171 -0.1270481523999 1.0
Ag     2 -0.3635874446808 -0.0503037239642  0.2939641948584 1.0
Ag     2  0.3635874446808 -0.2939641948584  0.0503037239642 1.0
END
