TITL 4Ag2Se-200724-055512-54c646 0.0249 251.568166 -4.61319299E+004 0 0 12 (Pmmn) n - 1
REM
REM Run started: Fri, 24 Jul 2020 06:19:26 +0100 in /rds/user/bz240/hpc-work/airss-fw/launch_tmp/launcher_2020-07-24-04-55-10-716148
REM CASTEP 19.11| from code version Version unavailable
REM Functional Perdew Burke Ernzerhof Relativity Koelling-Harmon Dispersion off
REM Cut-off 300.0000 eV Grid scale 1.7500 Gmax 15.5288 1/A FBSC none
REM MP grid 4 4 1 Offset 0.000 0.000 0.000 No. kpts 4 Spacing 0.07
REM Total runtime: 1662.54 s
REM Overall efficiency: 94 %
REM
REM 4Ag2Se.cell (6404a18c6b5dc90313b5c56acf317f23)
REM
REM compiler GCC version 4.8.5 20150623 (Red Hat 4.8.5-39)
REM options -cpp -mtune=generic -march=x86-64 -g -Og
REM COMMAND_LINE
REM seed -857238569 1085949026 -817320910 -1797171936 839589136 -787353096 591489531 1318288734 -1524587730 1418522389 -1739901331 -1806601440
REM
REM Se 3|2.1|7|7|9|40:41:32(qc=5)
REM Ag 3|2.2|7|7|9|40U:50:41:42(qc=5)
REM 
CELL 1.54180    4.02558    4.05218   15.42190   90.00000   90.00000   90.00000
LATT -1
SFAC Se Ag 
Se     1  0.0633612000000  0.2727790384574 -0.1184169248782 1.0
Se     1 -0.4366388000000 -0.2727790384574 -0.3815830751218 1.0
Se     1 -0.4366388000000 -0.2727790384574  0.3815830751218 1.0
Se     1  0.0633612000000  0.2727790384574  0.1184169248782 1.0
Ag     2  0.0633612000000 -0.2483686578173  0.2505770522297 1.0
Ag     2 -0.4366388000000  0.2483686578173  0.2494229477703 1.0
Ag     2 -0.4366388000000  0.2483686578173 -0.2494229477703 1.0
Ag     2  0.0633612000000 -0.2483686578173 -0.2505770522297 1.0
Ag     2  0.0633612000000  0.2330949043023 -0.3966347714341 1.0
Ag     2 -0.4366388000000 -0.2330949043023 -0.1033652285659 1.0
Ag     2 -0.4366388000000 -0.2330949043023  0.1033652285659 1.0
Ag     2  0.0633612000000  0.2330949043023  0.3966347714341 1.0
END
