TITL 4Ag2Se_TETRA-200724-160312-49f948 -0.4584 259.936416 -4.61314275E+004 0 0 12 (Pbam) n - 1
REM
REM Run started: Fri, 24 Jul 2020 16:22:30 +0100 in /scratch/scratch/uccabz1/launch_tmp/launcher_2020-07-24-15-03-10-239816
REM CASTEP 19.11| from code version Version unavailable
REM Functional Perdew Burke Ernzerhof Relativity Koelling-Harmon Dispersion off
REM Cut-off 300.0000 eV Grid scale 1.7500 Gmax 15.5288 1/A FBSC none
REM MP grid 2 2 4 Offset 0.000 0.000 0.000 No. kpts 2 Spacing 0.07
REM Total runtime: 1273.43 s
REM Overall efficiency: 70.9167 %
REM
REM 4Ag2Se_TETRA.cell (4020362940262d3df87d4014b41eb05e)
REM
REM compiler GCC version 4.9.2
REM options -cpp -iprefix /scratch/UCL/applications/gcc/4.9.2/bin/../lib/gcc/x86_64-unknown-linux-gnu/4.9.2/ -mtune=corei7 -march=x86-64 -g -O2
REM COMMAND_LINE
REM seed -391461190 299428380 1894219138 -651131479 485219346 -2122398237 -276995981 -1488834319 1304375228 1820097098 -1401667375 200875375
REM
REM Se 3|2.1|7|7|9|40:41:32(qc=5)
REM Ag 3|2.2|7|7|9|40U:50:41:42(qc=5)
REM 
CELL 1.54180    7.71988    8.03128    4.19249   90.00000   90.00000   90.00000
LATT -1
SFAC Se Ag 
Se     1 -0.4962285816879  0.2581687350629  0.1017247000000 1.0
Se     1  0.4962285816879 -0.2581687350629  0.1017247000000 1.0
Se     1  0.0037714183121  0.2418312649371  0.1017247000000 1.0
Se     1 -0.0037714183121 -0.2418312649371  0.1017247000000 1.0
Ag     2  0.2720967984197  0.2507482467424 -0.3982753000000 1.0
Ag     2 -0.2720967984197 -0.2507482467424 -0.3982753000000 1.0
Ag     2 -0.2279032015803  0.2492517532576 -0.3982753000000 1.0
Ag     2  0.2279032015803 -0.2492517532576 -0.3982753000000 1.0
Ag     2  0.2403508525921  0.4999210262593  0.1017247000000 1.0
Ag     2 -0.2403508525921 -0.4999210262593  0.1017247000000 1.0
Ag     2 -0.2596491474079  0.0000789737407  0.1017247000000 1.0
Ag     2  0.2596491474079 -0.0000789737407  0.1017247000000 1.0
END
