TITL 4Ag2Se-200724-075029-52fd47 0.0075 245.073777 -4.61315535E+004 0 0 12 (Cmme) n - 1
REM
REM Run started: Fri, 24 Jul 2020 08:06:49 +0100 in /rds/user/bz240/hpc-work/airss-fw/launch_tmp/launcher_2020-07-24-06-50-26-644433
REM CASTEP 19.11| from code version Version unavailable
REM Functional Perdew Burke Ernzerhof Relativity Koelling-Harmon Dispersion off
REM Cut-off 300.0000 eV Grid scale 1.7500 Gmax 15.5288 1/A FBSC none
REM MP grid 4 3 2 Offset 0.000 0.000 0.000 No. kpts 4 Spacing 0.07
REM Total runtime: 1460.31 s
REM Overall efficiency: 93.4 %
REM
REM 4Ag2Se.cell (6404a18c6b5dc90313b5c56acf317f23)
REM
REM compiler GCC version 4.8.5 20150623 (Red Hat 4.8.5-39)
REM options -cpp -mtune=generic -march=x86-64 -g -Og
REM COMMAND_LINE
REM seed -1121484452 -1400513996 1652456382 -1694588605 -1291457570 1839808904 1810060178 -222711081 1626185797 342233135 -1628870277 556668952
REM
REM Se 3|2.1|7|7|9|40:41:32(qc=5)
REM Ag 3|2.2|7|7|9|40U:50:41:42(qc=5)
REM 
CELL 1.54180    4.81306    6.19322    8.22165   90.00000   90.00000   90.00000
LATT -1
SFAC Se Ag 
Se     1 -0.2500000000000  0.2043315033014  0.2500000000000 1.0
Se     1  0.2500000000000  0.2043315033014 -0.2500000000000 1.0
Se     1  0.2500000000000 -0.2043315033014  0.2500000000000 1.0
Se     1 -0.2500000000000 -0.2043315033014 -0.2500000000000 1.0
Ag     2 -0.2500000000000  0.2961807677648 -0.4164473658029 1.0
Ag     2  0.2500000000000  0.2961807677648  0.4164473658029 1.0
Ag     2  0.2500000000000 -0.2961807677648 -0.4164473658029 1.0
Ag     2 -0.2500000000000 -0.2961807677648  0.4164473658029 1.0
Ag     2  0.2500000000000  0.2961807677648  0.0835526341971 1.0
Ag     2 -0.2500000000000  0.2961807677648 -0.0835526341971 1.0
Ag     2 -0.2500000000000 -0.2961807677648  0.0835526341971 1.0
Ag     2  0.2500000000000 -0.2961807677648 -0.0835526341971 1.0
END
