TITL 4Ag2Se_TETRA-200724-174236-733bc7 0.0081 248.954688 -4.61305553E+004 0 0 12 (Cmc21) n - 1
REM
REM Run started: Fri, 24 Jul 2020 19:11:28 +0100 in /scratch/scratch/uccabz1/launch_tmp/launcher_2020-07-24-16-42-34-464115
REM CASTEP 19.11| from code version Version unavailable
REM Functional Perdew Burke Ernzerhof Relativity Koelling-Harmon Dispersion off
REM Cut-off 300.0000 eV Grid scale 1.7500 Gmax 15.5288 1/A FBSC none
REM MP grid 3 3 3 Offset 0.000 0.000 0.000 No. kpts 8 Spacing 0.07
REM Total runtime: 5863.3 s
REM Overall efficiency: 95.75 %
REM
REM 4Ag2Se_TETRA.cell (4020362940262d3df87d4014b41eb05e)
REM
REM compiler GCC version 4.9.2
REM options -cpp -iprefix /scratch/UCL/applications/gcc/4.9.2/bin/../lib/gcc/x86_64-unknown-linux-gnu/4.9.2/ -mtune=corei7 -march=x86-64 -g -O2
REM COMMAND_LINE
REM seed -739576824 -358110571 2009197882 -889289818 -2091764252 1059655872 -1425021137 2111880721 -196646150 -1538815714 1410139637 -55117445
REM
REM Se 3|2.1|7|7|9|40:41:32(qc=5)
REM Ag 3|2.2|7|7|9|40U:50:41:42(qc=5)
REM 
CELL 1.54180    6.64346    6.04459    6.64346   90.00000  111.06417   90.00000
LATT -1
SFAC Se Ag 
Se     1  0.0011314159834 -0.3684518096573  0.3249713341909 1.0
Se     1 -0.0011314159834  0.1315481903427 -0.3249713341909 1.0
Se     1 -0.3249713341909  0.1315481903427 -0.0011314159834 1.0
Se     1  0.3249713341909 -0.3684518096573  0.0011314159834 1.0
Ag     2  0.0526388868752  0.2019371445211  0.3044641995995 1.0
Ag     2 -0.0526388868752 -0.2980628554789 -0.3044641995995 1.0
Ag     2 -0.3044641995995 -0.2980628554789 -0.0526388868752 1.0
Ag     2  0.3044641995995  0.2019371445211  0.0526388868752 1.0
Ag     2  0.4005791738827  0.3926622651362 -0.3383364360761 1.0
Ag     2 -0.4005791738827 -0.1073377348638  0.3383364360761 1.0
Ag     2  0.3383364360761 -0.1073377348638 -0.4005791738827 1.0
Ag     2 -0.3383364360761  0.3926622651362  0.4005791738827 1.0
END
