TITL 4Ag2Se-200724-083931-b75d1c 0.0061 240.215503 -4.61324717E+004 0 0 12 (P43212) n - 1
REM
REM Run started: Fri, 24 Jul 2020 08:48:58 +0100 in /scratch/scratch/uccabz1/launch_tmp/launcher_2020-07-24-07-39-29-398873
REM CASTEP 19.11| from code version Version unavailable
REM Functional Perdew Burke Ernzerhof Relativity Koelling-Harmon Dispersion off
REM Cut-off 300.0000 eV Grid scale 1.7500 Gmax 15.5288 1/A FBSC none
REM MP grid 3 3 2 Offset 0.000 0.000 0.000 No. kpts 3 Spacing 0.07
REM Total runtime: 746.68 s
REM Overall efficiency: 72.6 %
REM
REM 4Ag2Se.cell (6404a18c6b5dc90313b5c56acf317f23)
REM
REM compiler GCC version 4.9.2
REM options -cpp -iprefix /scratch/UCL/applications/gcc/4.9.2/bin/../lib/gcc/x86_64-unknown-linux-gnu/4.9.2/ -mtune=corei7 -march=x86-64 -g -O2
REM COMMAND_LINE
REM seed -677557650 808889274 -1375529758 -916466590 1844640491 -680814233 -1412828295 834227851 -2018771735 1466566530 -252996106 -332970214
REM
REM Se 3|2.1|7|7|9|40:41:32(qc=5)
REM Ag 3|2.2|7|7|9|40U:50:41:42(qc=5)
REM 
CELL 1.54180    5.27522    5.27522    8.63217   90.00000   90.00000   90.00000
LATT -1
SFAC Se Ag 
Se     1 -0.1012574321656  0.3987425678344  0.4977291000000 1.0
Se     1  0.1012574321656 -0.3987425678344 -0.0022709000000 1.0
Se     1  0.3987425678344  0.1012574321656 -0.2522709000000 1.0
Se     1 -0.3987425678344 -0.1012574321656  0.2477291000000 1.0
Ag     2 -0.2535756832483  0.3662265753981  0.1678575777351 1.0
Ag     2  0.2535756832483 -0.3662265753981 -0.3321424222649 1.0
Ag     2  0.3662265753981  0.2535756832483  0.4178575777351 1.0
Ag     2 -0.3662265753981 -0.2535756832483 -0.0821424222649 1.0
Ag     2 -0.1337734246019  0.2464243167517 -0.1723993777351 1.0
Ag     2  0.1337734246019 -0.2464243167517  0.3276006222649 1.0
Ag     2  0.2464243167517  0.1337734246019  0.0776006222649 1.0
Ag     2 -0.2464243167517 -0.1337734246019 -0.4223993777351 1.0
END
