TITL 4Ag2Se-200724-092834-ec7d8f -0.0346 260.324394 -4.61327563E+004 0 0 12 (R3) n - 1
REM
REM Run started: Fri, 24 Jul 2020 09:53:39 +0100 in /rds/user/bz240/hpc-work/airss-fw/launch_tmp/launcher_2020-07-24-08-28-32-014081
REM CASTEP 19.11| from code version Version unavailable
REM Functional Perdew Burke Ernzerhof Relativity Koelling-Harmon Dispersion off
REM Cut-off 300.0000 eV Grid scale 1.7500 Gmax 15.5288 1/A FBSC none
REM MP grid 3 3 3 Offset 0.000 0.000 0.000 No. kpts 6 Spacing 0.07
REM Total runtime: 1475.41 s
REM Overall efficiency: 93.6 %
REM
REM 4Ag2Se.cell (6404a18c6b5dc90313b5c56acf317f23)
REM
REM compiler GCC version 4.8.5 20150623 (Red Hat 4.8.5-39)
REM options -cpp -mtune=generic -march=x86-64 -g -Og
REM COMMAND_LINE
REM seed 1444344555 -1917096160 -149088176 2032003150 -189085745 490345404 -1545953813 1039701345 1622660631 844676117 1926772774 -489078728
REM
REM Se 3|2.1|7|7|9|40:41:32(qc=5)
REM Ag 3|2.2|7|7|9|40U:50:41:42(qc=5)
REM 
CELL 1.54180    6.38569    6.38569    6.38569   90.73438   90.73438   90.73438
LATT -1
SFAC Se Ag 
Se     1  0.0761664599654 -0.4836122168255 -0.0119307583866 1.0
Se     1 -0.0119307583866  0.0761664599654 -0.4836122168255 1.0
Se     1 -0.4836122168255 -0.0119307583866  0.0761664599654 1.0
Se     1 -0.4226996379418 -0.4226996379418 -0.4226996379418 1.0
Ag     2  0.2705048779471 -0.1658583864613 -0.2437840610125 1.0
Ag     2 -0.2437840610125  0.2705048779471 -0.1658583864613 1.0
Ag     2 -0.1658583864613 -0.2437840610125  0.2705048779471 1.0
Ag     2  0.3221458380926  0.2750712786238 -0.2772080959991 1.0
Ag     2 -0.2772080959991  0.3221458380926  0.2750712786238 1.0
Ag     2  0.2750712786238 -0.2772080959991  0.3221458380926 1.0
Ag     2  0.2721152112159  0.2721152112159  0.2721152112159 1.0
Ag     2 -0.1722034092180 -0.1722034092180 -0.1722034092180 1.0
END
