TITL 4Ag2Se_TETRA-200724-181258-d8e324 -0.1057 252.244676 -4.61308198E+004 0 0 12 (Cmc21) n - 1
REM
REM Run started: Fri, 24 Jul 2020 19:33:22 +0100 in /scratch/scratch/uccabz1/launch_tmp/launcher_2020-07-24-17-12-56-556604
REM CASTEP 19.11| from code version Version unavailable
REM Functional Perdew Burke Ernzerhof Relativity Koelling-Harmon Dispersion off
REM Cut-off 300.0000 eV Grid scale 1.7500 Gmax 15.5288 1/A FBSC none
REM MP grid 3 3 3 Offset 0.000 0.000 0.000 No. kpts 8 Spacing 0.07
REM Total runtime: 5351.55 s
REM Overall efficiency: 95.25 %
REM
REM 4Ag2Se_TETRA.cell (4020362940262d3df87d4014b41eb05e)
REM
REM compiler GCC version 4.9.2
REM options -cpp -iprefix /scratch/UCL/applications/gcc/4.9.2/bin/../lib/gcc/x86_64-unknown-linux-gnu/4.9.2/ -mtune=corei7 -march=x86-64 -g -O2
REM COMMAND_LINE
REM seed -637165912 1739307457 -1423366375 2047023109 1471983770 1304756101 985432623 154384999 585982840 438228370 1501793006 -1684125912
REM
REM Se 3|2.1|7|7|9|40:41:32(qc=5)
REM Ag 3|2.2|7|7|9|40U:50:41:42(qc=5)
REM 
CELL 1.54180    6.96996    5.68197    6.96996   90.00000  113.96061   90.00000
LATT -1
SFAC Se Ag 
Se     1  0.1778305878514  0.0975847211863  0.4829483014233 1.0
Se     1 -0.1778305878514 -0.4024152788137 -0.4829483014233 1.0
Se     1 -0.4829483014233 -0.4024152788137 -0.1778305878514 1.0
Se     1  0.4829483014233  0.0975847211863  0.1778305878514 1.0
Ag     2 -0.4295365630567  0.0821926966859 -0.1916392415143 1.0
Ag     2  0.4295365630567 -0.4178073033141  0.1916392415143 1.0
Ag     2  0.1916392415143 -0.4178073033141  0.4295365630567 1.0
Ag     2 -0.1916392415143  0.0821926966859 -0.4295365630567 1.0
Ag     2  0.1797522731398 -0.1322672178721 -0.1481179322556 1.0
Ag     2 -0.1797522731398  0.3677327821279  0.1481179322556 1.0
Ag     2  0.1481179322556  0.3677327821279 -0.1797522731398 1.0
Ag     2 -0.1481179322556 -0.1322672178721  0.1797522731398 1.0
END
