TITL 4Ag2Se-200724-044914-9668c2 -0.0543 247.138196 -4.61325630E+004 0 0 12 (R3) n - 1
REM
REM Run started: Fri, 24 Jul 2020 05:14:34 +0100 in /scratch/scratch/uccabz1/launch_tmp/launcher_2020-07-24-03-49-12-726361
REM CASTEP 19.11| from code version Version unavailable
REM Functional Perdew Burke Ernzerhof Relativity Koelling-Harmon Dispersion off
REM Cut-off 300.0000 eV Grid scale 1.7500 Gmax 15.5288 1/A FBSC none
REM MP grid 3 3 3 Offset 0.000 0.000 0.000 No. kpts 6 Spacing 0.07
REM Total runtime: 1548.75 s
REM Overall efficiency: 89.1667 %
REM
REM 4Ag2Se.cell (6404a18c6b5dc90313b5c56acf317f23)
REM
REM compiler GCC version 4.9.2
REM options -cpp -iprefix /scratch/UCL/applications/gcc/4.9.2/bin/../lib/gcc/x86_64-unknown-linux-gnu/4.9.2/ -mtune=corei7 -march=x86-64 -g -O2
REM COMMAND_LINE
REM seed 1005124081 -1147672913 390449889 92444218 1020558031 652615800 -1012230626 -1654540319 798327061 1719626765 -1640816411 74002458
REM
REM Se 3|2.1|7|7|9|40:41:32(qc=5)
REM Ag 3|2.2|7|7|9|40U:50:41:42(qc=5)
REM 
CELL 1.54180    6.27644    6.27644    6.27644   88.98935   88.98935   88.98935
LATT -1
SFAC Se Ag 
Se     1 -0.1103615169777 -0.0850653228178  0.3588209285852 1.0
Se     1  0.3588209285852 -0.1103615169777 -0.0850653228178 1.0
Se     1 -0.0850653228178  0.3588209285852 -0.1103615169777 1.0
Se     1  0.3623580887622  0.3623580887622  0.3623580887622 1.0
Ag     2  0.3240194763020  0.4447609944979 -0.0587847846380 1.0
Ag     2 -0.0587847846380  0.3240194763020  0.4447609944979 1.0
Ag     2  0.4447609944979 -0.0587847846380  0.3240194763020 1.0
Ag     2 -0.4153789300330  0.1631358065006 -0.3133746144991 1.0
Ag     2 -0.3133746144991 -0.4153789300330  0.1631358065006 1.0
Ag     2  0.1631358065006 -0.3133746144991 -0.4153789300330 1.0
Ag     2 -0.0793753869602 -0.0793753869602 -0.0793753869602 1.0
Ag     2 -0.3499590387222 -0.3499590387222 -0.3499590387222 1.0
END
