TITL 4Ag2Se_TETRA-200724-174426-3d166d -0.0368 248.083724 -4.61307856E+004 0 0 12 (Pmna) n - 1
REM
REM Run started: Fri, 24 Jul 2020 18:38:22 +0100 in /scratch/scratch/uccabz1/launch_tmp/launcher_2020-07-24-16-44-24-362402
REM CASTEP 19.11| from code version Version unavailable
REM Functional Perdew Burke Ernzerhof Relativity Koelling-Harmon Dispersion off
REM Cut-off 300.0000 eV Grid scale 1.7500 Gmax 15.5288 1/A FBSC none
REM MP grid 3 3 2 Offset 0.000 0.000 0.000 No. kpts 4 Spacing 0.07
REM Total runtime: 3593.04 s
REM Overall efficiency: 93.5833 %
REM
REM 4Ag2Se_TETRA.cell (4020362940262d3df87d4014b41eb05e)
REM
REM compiler GCC version 4.9.2
REM options -cpp -iprefix /scratch/UCL/applications/gcc/4.9.2/bin/../lib/gcc/x86_64-unknown-linux-gnu/4.9.2/ -mtune=corei7 -march=x86-64 -g -O2
REM COMMAND_LINE
REM seed 116029490 -1051452668 -467702174 515180028 -1621663913 1379399525 138782808 1378392256 821717121 -1194066719 -1034420948 1483730501
REM
REM Se 3|2.1|7|7|9|40:41:32(qc=5)
REM Ag 3|2.2|7|7|9|40U:50:41:42(qc=5)
REM 
CELL 1.54180    5.49180    5.49329    8.22340   90.00000   90.00000   90.00000
LATT -1
SFAC Se Ag 
Se     1  0.2471139461260  0.4955871957156  0.2162588217130 1.0
Se     1 -0.2471139461260 -0.0044128042844 -0.2162588217130 1.0
Se     1 -0.2471139461260  0.0044128042844  0.2162588217130 1.0
Se     1  0.2471139461260 -0.4955871957156 -0.2162588217130 1.0
Ag     2 -0.2501077784667  0.2500763999971 -0.4999060151220 1.0
Ag     2  0.2501077784667 -0.2499236000029  0.4999060151220 1.0
Ag     2  0.2501077784667  0.2499236000029 -0.4999060151220 1.0
Ag     2 -0.2501077784667 -0.2500763999971  0.4999060151220 1.0
Ag     2 -0.2520292936380  0.4911232763760 -0.1729333618219 1.0
Ag     2  0.2520292936380 -0.0088767236240  0.1729333618219 1.0
Ag     2  0.2520292936380  0.0088767236240 -0.1729333618219 1.0
Ag     2 -0.2520292936380 -0.4911232763760  0.1729333618219 1.0
END
