TITL 4Ag2Se-200724-090558-f8b34b -0.0652 268.254130 -4.61311588E+004 0 0 12 (R3) n - 1
REM
REM Run started: Fri, 24 Jul 2020 10:37:51 +0100 in /rds/user/bz240/hpc-work/airss-fw/launch_tmp/launcher_2020-07-24-08-05-56-779828
REM CASTEP 19.11| from code version Version unavailable
REM Functional Perdew Burke Ernzerhof Relativity Koelling-Harmon Dispersion off
REM Cut-off 300.0000 eV Grid scale 1.7500 Gmax 15.5288 1/A FBSC none
REM MP grid 3 3 3 Offset 0.000 0.000 0.000 No. kpts 6 Spacing 0.07
REM Total runtime: 5555.87 s
REM Overall efficiency: 94.25 %
REM
REM 4Ag2Se.cell (6404a18c6b5dc90313b5c56acf317f23)
REM
REM compiler GCC version 4.8.5 20150623 (Red Hat 4.8.5-39)
REM options -cpp -mtune=generic -march=x86-64 -g -Og
REM COMMAND_LINE
REM seed 511441306 1313568135 603985075 -682323580 1782771048 -585826488 -287521527 1870508572 -980962584 1963714940 258240179 -683634956
REM
REM Se 3|2.1|7|7|9|40:41:32(qc=5)
REM Ag 3|2.2|7|7|9|40U:50:41:42(qc=5)
REM 
CELL 1.54180    7.28416    7.28416    7.19495   59.58899   59.58899   60.00000
LATT -1
SFAC Se Ag 
Se     1  0.3626212783908 -0.0286442160246 -0.0311177282620 1.0
Se     1 -0.3028593341042  0.3626212783908 -0.0311177282620 1.0
Se     1 -0.0286442160246 -0.3028593341042 -0.0311177282620 1.0
Se     1 -0.5107477082652 -0.5107477082652  0.5322431247955 1.0
Ag     2 -0.1782390259852 -0.4076341868623 -0.4698566785781 1.0
Ag     2  0.0557298914257 -0.1782390259852 -0.4698566785781 1.0
Ag     2 -0.4076341868623  0.0557298914257 -0.4698566785781 1.0
Ag     2 -0.4621079683808 -0.0996046209387  0.2544294453224 1.0
Ag     2  0.3072831439970 -0.4621079683808  0.2544294453224 1.0
Ag     2 -0.0996046209387  0.3072831439970  0.2544294453224 1.0
Ag     2  0.3371737757114  0.3371737757114 -0.0115213271343 1.0
Ag     2 -0.0431594956306 -0.0431594956306  0.1294784868919 1.0
END
