TITL 4Ag2Se_TETRA-200724-153200-5e5632 0.0098 258.732680 -4.61323128E+004 0 0 12 (R3) n - 1
REM
REM Run started: Fri, 24 Jul 2020 16:17:42 +0100 in /scratch/scratch/uccabz1/launch_tmp/launcher_2020-07-24-14-31-58-807953
REM CASTEP 19.11| from code version Version unavailable
REM Functional Perdew Burke Ernzerhof Relativity Koelling-Harmon Dispersion off
REM Cut-off 300.0000 eV Grid scale 1.7500 Gmax 15.5288 1/A FBSC none
REM MP grid 3 3 3 Offset 0.000 0.000 0.000 No. kpts 6 Spacing 0.07
REM Total runtime: 3032.07 s
REM Overall efficiency: 93.1667 %
REM
REM 4Ag2Se_TETRA.cell (4020362940262d3df87d4014b41eb05e)
REM
REM compiler GCC version 4.9.2
REM options -cpp -iprefix /scratch/UCL/applications/gcc/4.9.2/bin/../lib/gcc/x86_64-unknown-linux-gnu/4.9.2/ -mtune=corei7 -march=x86-64 -g -O2
REM COMMAND_LINE
REM seed 879628027 -1138082298 2139590742 -1829777375 -1048837799 -866769501 1325290799 1152468757 -1457397878 -776771748 1068609337 -140815529
REM
REM Se 3|2.1|7|7|9|40:41:32(qc=5)
REM Ag 3|2.2|7|7|9|40U:50:41:42(qc=5)
REM 
CELL 1.54180    6.37227    6.37227    6.37227   90.39997   90.39997   90.39997
LATT -1
SFAC Se Ag 
Se     1 -0.2021353320196 -0.2695518153647  0.2477121454426 1.0
Se     1 -0.2695518153647  0.2477121454426 -0.2021353320196 1.0
Se     1  0.2477121454426 -0.2021353320196 -0.2695518153647 1.0
Se     1  0.3296435764130  0.3296435764130  0.3296435764130 1.0
Ag     2  0.3329711664946 -0.3192467488339  0.1129736716088 1.0
Ag     2 -0.3192467488339  0.1129736716088  0.3329711664946 1.0
Ag     2  0.1129736716088  0.3329711664946 -0.3192467488339 1.0
Ag     2 -0.0153029984400  0.3730025608676  0.1009924264748 1.0
Ag     2  0.3730025608676  0.1009924264748 -0.0153029984400 1.0
Ag     2  0.1009924264748 -0.0153029984400  0.3730025608676 1.0
Ag     2 -0.1655908710892 -0.1655908710892 -0.1655908710892 1.0
Ag     2 -0.4204799815539 -0.4204799815539 -0.4204799815539 1.0
END
