TITL 4Ag2Se-200724-043046-9a9c09 0.1239 252.177263 -4.61327249E+004 0 0 12 (Pna21) n - 1
REM
REM Run started: Fri, 24 Jul 2020 07:09:33 +0100 in /rds/user/bz240/hpc-work/airss-fw/launch_tmp/launcher_2020-07-24-03-30-44-504789
REM CASTEP 19.11| from code version Version unavailable
REM Functional Perdew Burke Ernzerhof Relativity Koelling-Harmon Dispersion off
REM Cut-off 300.0000 eV Grid scale 1.7500 Gmax 15.5288 1/A FBSC none
REM MP grid 4 3 2 Offset 0.000 0.000 0.000 No. kpts 6 Spacing 0.07
REM Total runtime: 10472.3 s
REM Overall efficiency: 97.0833 %
REM
REM 4Ag2Se.cell (6404a18c6b5dc90313b5c56acf317f23)
REM
REM compiler GCC version 4.8.5 20150623 (Red Hat 4.8.5-39)
REM options -cpp -mtune=generic -march=x86-64 -g -Og
REM COMMAND_LINE
REM seed -982480922 2011234261 -247122792 -821362640 -1670502233 -521676214 264971811 1520709525 132082277 -1747362753 -130738878 189765076
REM
REM Se 3|2.1|7|7|9|40:41:32(qc=5)
REM Ag 3|2.2|7|7|9|40U:50:41:42(qc=5)
REM 
CELL 1.54180    4.40093    6.33076    9.05120   90.00000   90.00000   89.93748
LATT -1
SFAC Se Ag 
Se     1 -0.3966678863577 -0.0163201108013  0.1544783869533 1.0
Se     1  0.1033321136423 -0.5163201108013 -0.1544783869533 1.0
Se     1  0.3919432738047 -0.0171846480180 -0.3452025108962 1.0
Se     1 -0.1080567261953 -0.5171846480180  0.3452025108962 1.0
Ag     2  0.1342606030484  0.2391647309545  0.0957196269544 1.0
Ag     2 -0.3657393969516 -0.2608352690455 -0.0957196269544 1.0
Ag     2  0.3609265232792  0.2089070127406  0.3923021421573 1.0
Ag     2 -0.1390734767208 -0.2910929872594 -0.3923021421573 1.0
Ag     2 -0.3622686539013  0.2098479628665 -0.1073948124026 1.0
Ag     2  0.1377313460987 -0.2901520371335  0.1073948124026 1.0
Ag     2  0.3599598401266 -0.2619580477424  0.4047639910307 1.0
Ag     2 -0.1400401598734  0.2380419522576 -0.4047639910307 1.0
END
