TITL 4Ag2Se-200724-051734-90afc2 0.0082 251.091231 -4.61325381E+004 0 0 12 (P21/c) n - 1
REM
REM Run started: Fri, 24 Jul 2020 06:22:51 +0100 in /rds/user/bz240/hpc-work/airss-fw/launch_tmp/launcher_2020-07-24-04-17-30-975227
REM CASTEP 19.11| from code version Version unavailable
REM Functional Perdew Burke Ernzerhof Relativity Koelling-Harmon Dispersion off
REM Cut-off 300.0000 eV Grid scale 1.7500 Gmax 15.5288 1/A FBSC none
REM MP grid 3 2 3 Offset 0.000 0.000 0.000 No. kpts 6 Spacing 0.07
REM Total runtime: 4102.48 s
REM Overall efficiency: 92.875 %
REM
REM 4Ag2Se.cell (6404a18c6b5dc90313b5c56acf317f23)
REM
REM compiler GCC version 4.8.5 20150623 (Red Hat 4.8.5-39)
REM options -cpp -mtune=generic -march=x86-64 -g -Og
REM COMMAND_LINE
REM seed 19579499 1456285267 -1326885743 206800712 789463517 1783900884 -257881043 -883207019 1039359128 -1415109273 630391836 -2074247849
REM
REM Se 3|2.1|7|7|9|40:41:32(qc=5)
REM Ag 3|2.2|7|7|9|40U:50:41:42(qc=5)
REM 
CELL 1.54180    5.02213    7.40781    6.86470  100.52397   90.00000   90.00000
LATT -1
SFAC Se Ag 
Se     1 -0.4019455227811 -0.4296904471874  0.2022204899283 1.0
Se     1  0.4019410227811  0.0703095528126 -0.2977795100717 1.0
Se     1 -0.0980589772189  0.4575574471874 -0.2985410899283 1.0
Se     1  0.0980544772189 -0.0424425528126  0.2014589100717 1.0
Ag     2 -0.1169671639389  0.2782464345984  0.3125513635252 1.0
Ag     2  0.1169626639389 -0.2217535654016 -0.1874486364748 1.0
Ag     2  0.1117112544340 -0.3504769202607  0.3658975177191 1.0
Ag     2 -0.1117157544340  0.1495230797393 -0.1341024822809 1.0
Ag     2  0.3882842455660  0.3783439202607 -0.4622181177191 1.0
Ag     2 -0.3882887455660 -0.1216560797393  0.0377818822809 1.0
Ag     2 -0.3830373360611 -0.2503794345984 -0.4088719635252 1.0
Ag     2  0.3830328360611  0.2496205654016  0.0911280364748 1.0
END
