TITL 4Ag2Se-200724-092236-e133af 0.0669 231.858554 -4.61321759E+004 0 0 12 (P-1) n - 1
REM
REM Run started: Fri, 24 Jul 2020 12:38:07 +0100 in /scratch/scratch/uccabz1/launch_tmp/launcher_2020-07-24-08-22-34-447857
REM CASTEP 19.11| from code version Version unavailable
REM Functional Perdew Burke Ernzerhof Relativity Koelling-Harmon Dispersion off
REM Cut-off 300.0000 eV Grid scale 1.7500 Gmax 15.5288 1/A FBSC none
REM MP grid 4 3 2 Offset 0.000 0.000 0.000 No. kpts 12 Spacing 0.07
REM Total runtime: 12040.4 s
REM Overall efficiency: 96.3077 %
REM
REM 4Ag2Se.cell (6404a18c6b5dc90313b5c56acf317f23)
REM
REM compiler GCC version 4.9.2
REM options -cpp -iprefix /scratch/UCL/applications/gcc/4.9.2/bin/../lib/gcc/x86_64-unknown-linux-gnu/4.9.2/ -mtune=corei7 -march=x86-64 -g -O2
REM COMMAND_LINE
REM seed 1772777095 1197011602 -1886233653 -774274319 1831317732 285131622 -706843229 -1697974049 -2017654118 -1837009912 -1522634491 142093707
REM
REM Se 3|2.1|7|7|9|40:41:32(qc=5)
REM Ag 3|2.2|7|7|9|40U:50:41:42(qc=5)
REM 
CELL 1.54180    4.30882    5.64025    9.63047   97.79148   89.10359   90.07356
LATT -1
SFAC Se Ag 
Se     1  0.2264700693193 -0.3356735215269  0.2163865048408 1.0
Se     1 -0.2264700693193  0.3356735215269 -0.2163865048408 1.0
Se     1  0.2574030958506 -0.1554651765560 -0.3865820000360 1.0
Se     1 -0.2574030958506  0.1554651765560  0.3865820000360 1.0
Ag     2  0.2553917826912  0.1092457186349 -0.0829668134514 1.0
Ag     2 -0.2553917826912 -0.1092457186349  0.0829668134514 1.0
Ag     2 -0.2531939189473  0.3904912017932  0.0817287422791 1.0
Ag     2  0.2531939189473 -0.3904912017932 -0.0817287422791 1.0
Ag     2 -0.2473705239367 -0.1727012954777 -0.2237188310782 1.0
Ag     2  0.2473705239367  0.1727012954777  0.2237188310782 1.0
Ag     2  0.2461648762720  0.3368059187329 -0.4445953428848 1.0
Ag     2 -0.2461648762720 -0.3368059187329  0.4445953428848 1.0
END
