TITL 4Ag2Se_TETRA-200724-153622-a365b2 0.0267 246.008827 -4.61324477E+004 0 0 12 (R3) n - 1
REM
REM Run started: Fri, 24 Jul 2020 16:22:12 +0100 in /scratch/scratch/uccabz1/launch_tmp/launcher_2020-07-24-14-36-21-102967
REM CASTEP 19.11| from code version Version unavailable
REM Functional Perdew Burke Ernzerhof Relativity Koelling-Harmon Dispersion off
REM Cut-off 300.0000 eV Grid scale 1.7500 Gmax 15.5288 1/A FBSC none
REM MP grid 3 3 3 Offset 0.000 0.000 0.000 No. kpts 6 Spacing 0.07
REM Total runtime: 3042.47 s
REM Overall efficiency: 92.75 %
REM
REM 4Ag2Se_TETRA.cell (4020362940262d3df87d4014b41eb05e)
REM
REM compiler GCC version 4.9.2
REM options -cpp -iprefix /scratch/UCL/applications/gcc/4.9.2/bin/../lib/gcc/x86_64-unknown-linux-gnu/4.9.2/ -mtune=corei7 -march=x86-64 -g -O2
REM COMMAND_LINE
REM seed 1942882286 633233720 945998968 1325152098 1669340527 -1970742473 -893582127 -1302601362 1548526890 -1763557520 -39945694 2020176738
REM
REM Se 3|2.1|7|7|9|40:41:32(qc=5)
REM Ag 3|2.2|7|7|9|40U:50:41:42(qc=5)
REM 
CELL 1.54180    6.26684    6.26684    6.26684   89.00481   89.00481   89.00481
LATT -1
SFAC Se Ag 
Se     1  0.0849188192865 -0.3289326998913 -0.4376202635436 1.0
Se     1 -0.3289326998913 -0.4376202635436  0.0849188192865 1.0
Se     1 -0.4376202635436  0.0849188192865 -0.3289326998913 1.0
Se     1  0.1629141695151  0.1629141695151  0.1629141695151 1.0
Ag     2  0.1209305500547  0.0500979056573 -0.2549449968240 1.0
Ag     2  0.0500979056573 -0.2549449968240  0.1209305500547 1.0
Ag     2 -0.2549449968240  0.1209305500547  0.0500979056573 1.0
Ag     2  0.4557230348131 -0.1353426297422  0.3074581599864 1.0
Ag     2 -0.1353426297422  0.3074581599864  0.4557230348131 1.0
Ag     2  0.3074581599864  0.4557230348131 -0.1353426297422 1.0
Ag     2 -0.3289117503980 -0.3289117503980 -0.3289117503980 1.0
Ag     2  0.4094474010861  0.4094474010861  0.4094474010861 1.0
END
