TITL 4Ag2Se-200724-080100-f0c6ae 0.0271 257.557292 -4.61323315E+004 0 0 12 (R3) n - 1
REM
REM Run started: Fri, 24 Jul 2020 08:59:13 +0100 in /scratch/scratch/uccabz1/launch_tmp/launcher_2020-07-24-07-00-58-816610
REM CASTEP 19.11| from code version Version unavailable
REM Functional Perdew Burke Ernzerhof Relativity Koelling-Harmon Dispersion off
REM Cut-off 300.0000 eV Grid scale 1.7500 Gmax 15.5288 1/A FBSC none
REM MP grid 3 3 3 Offset 0.000 0.000 0.000 No. kpts 6 Spacing 0.07
REM Total runtime: 3534.77 s
REM Overall efficiency: 91.8889 %
REM
REM 4Ag2Se.cell (6404a18c6b5dc90313b5c56acf317f23)
REM
REM compiler GCC version 4.9.2
REM options -cpp -iprefix /scratch/UCL/applications/gcc/4.9.2/bin/../lib/gcc/x86_64-unknown-linux-gnu/4.9.2/ -mtune=corei7 -march=x86-64 -g -O2
REM COMMAND_LINE
REM seed -644680291 -1950591397 788929052 1726974144 -1869798683 -428511620 1047467048 1376191832 -1926977661 2016077887 1442494886 1328559055
REM
REM Se 3|2.1|7|7|9|40:41:32(qc=5)
REM Ag 3|2.2|7|7|9|40U:50:41:42(qc=5)
REM 
CELL 1.54180    6.37907    6.37907    6.37907   85.76922   85.76922   85.76922
LATT -1
SFAC Se Ag 
Se     1 -0.3254110160254  0.1372178933125 -0.3605575855184 1.0
Se     1 -0.3605575855184 -0.3254110160254  0.1372178933125 1.0
Se     1  0.1372178933125 -0.3605575855184 -0.3254110160254 1.0
Se     1  0.1795677028938  0.1795677028938  0.1795677028938 1.0
Ag     2 -0.1682434423660 -0.0154684984165  0.2685275912944 1.0
Ag     2  0.2685275912944 -0.1682434423660 -0.0154684984165 1.0
Ag     2 -0.0154684984165  0.2685275912944 -0.1682434423660 1.0
Ag     2  0.3047478026047  0.0031363335828 -0.4499578425530 1.0
Ag     2 -0.4499578425530  0.3047478026047  0.0031363335828 1.0
Ag     2  0.0031363335828 -0.4499578425530  0.3047478026047 1.0
Ag     2  0.4522653630532  0.4522653630532  0.4522653630532 1.0
Ag     2 -0.2973048018622 -0.2973048018622 -0.2973048018622 1.0
END
