TITL 4Ag2Se_TETRA-200724-180322-f6131e 0.0119 255.125672 -4.61314361E+004 0 0 12 (Pc) n - 1
REM
REM Run started: Fri, 24 Jul 2020 18:57:34 +0100 in /scratch/scratch/uccabz1/launch_tmp/launcher_2020-07-24-17-03-19-701931
REM CASTEP 19.11| from code version Version unavailable
REM Functional Perdew Burke Ernzerhof Relativity Koelling-Harmon Dispersion off
REM Cut-off 300.0000 eV Grid scale 1.7500 Gmax 15.5288 1/A FBSC none
REM MP grid 3 3 2 Offset 0.000 0.000 0.000 No. kpts 6 Spacing 0.07
REM Total runtime: 3606.25 s
REM Overall efficiency: 93 %
REM
REM 4Ag2Se_TETRA.cell (4020362940262d3df87d4014b41eb05e)
REM
REM compiler GCC version 4.9.2
REM options -cpp -iprefix /scratch/UCL/applications/gcc/4.9.2/bin/../lib/gcc/x86_64-unknown-linux-gnu/4.9.2/ -mtune=corei7 -march=x86-64 -g -O2
REM COMMAND_LINE
REM seed 985789945 -2123721446 1461728947 87226582 574463531 1991372760 -836189268 1342620770 -855341333 -790989190 -144614035 789276870
REM
REM Se 3|2.1|7|7|9|40:41:32(qc=5)
REM Ag 3|2.2|7|7|9|40U:50:41:42(qc=5)
REM 
CELL 1.54180    5.73817    5.67729    7.83160   90.40678   90.00000   90.00000
LATT -1
SFAC Se Ag 
Se     1 -0.2527535860193  0.3256698197961 -0.1052224517133 1.0
Se     1  0.2527535860193 -0.1743301802039 -0.1052224517133 1.0
Se     1  0.2480321440713  0.1252961054921  0.3778100158940 1.0
Se     1 -0.2480321440713 -0.3747038945079  0.3778100158940 1.0
Ag     2 -0.1322197574899  0.2163527783428  0.2011205163607 1.0
Ag     2  0.1322197574899 -0.2836472216572  0.2011205163607 1.0
Ag     2  0.1484923201793  0.4105775090106 -0.2658500750551 1.0
Ag     2 -0.1484923201793 -0.0894224909894 -0.2658500750551 1.0
Ag     2  0.4000180959304 -0.1874358430129 -0.4124438746021 1.0
Ag     2 -0.4000180959304  0.3125641569871 -0.4124438746021 1.0
Ag     2  0.3677772902479  0.2753970303712  0.0828204691159 1.0
Ag     2 -0.3677772902479 -0.2246029696288  0.0828204691159 1.0
END
