TITL 4Ag2Se_TETRA-200724-134741-2b1230 0.1638 258.428672 -4.61300528E+004 0 0 12 (Pmna) n - 1
REM
REM Run started: Fri, 24 Jul 2020 14:41:49 +0100 in /scratch/scratch/uccabz1/launch_tmp/launcher_2020-07-24-12-47-39-414083
REM CASTEP 19.11| from code version Version unavailable
REM Functional Perdew Burke Ernzerhof Relativity Koelling-Harmon Dispersion off
REM Cut-off 300.0000 eV Grid scale 1.7500 Gmax 15.5288 1/A FBSC none
REM MP grid 3 2 3 Offset 0.000 0.000 0.000 No. kpts 4 Spacing 0.07
REM Total runtime: 3609.84 s
REM Overall efficiency: 93.75 %
REM
REM 4Ag2Se_TETRA.cell (4020362940262d3df87d4014b41eb05e)
REM
REM compiler GCC version 4.9.2
REM options -cpp -iprefix /scratch/UCL/applications/gcc/4.9.2/bin/../lib/gcc/x86_64-unknown-linux-gnu/4.9.2/ -mtune=corei7 -march=x86-64 -g -O2
REM COMMAND_LINE
REM seed 568516547 1724550856 986587391 486349212 572950739 1591800323 -358110571 -1097571904 78782418 162238064 -52515943 1046614521
REM
REM Se 3|2.1|7|7|9|40:41:32(qc=5)
REM Ag 3|2.2|7|7|9|40U:50:41:42(qc=5)
REM 
CELL 1.54180    5.98339    7.28982    5.98339   90.00000   98.02167   90.00000
LATT -1
SFAC Se Ag 
Se     1 -0.1250000000000  0.0000000000000 -0.3750000000000 1.0
Se     1  0.1250000000000  0.5000000000000  0.3750000000000 1.0
Se     1 -0.3750000000000 -0.5000000000000 -0.1250000000000 1.0
Se     1  0.3750000000000  0.0000000000000  0.1250000000000 1.0
Ag     2 -0.2762480135266 -0.3508989720478  0.4737519864734 1.0
Ag     2  0.2762480135266  0.1491010279522 -0.4737519864734 1.0
Ag     2  0.4737519864734 -0.1491010279522 -0.2762480135266 1.0
Ag     2 -0.4737519864734  0.3508989720478  0.2762480135266 1.0
Ag     2  0.2237519864734 -0.3508989720478 -0.0262480135266 1.0
Ag     2 -0.2237519864734  0.1491010279522  0.0262480135266 1.0
Ag     2 -0.0262480135266 -0.1491010279522  0.2237519864734 1.0
Ag     2  0.0262480135266  0.3508989720478 -0.2237519864734 1.0
END
