TITL 4Ag2Se_TETRA-200724-145542-3598ad 0.0816 266.145218 -4.61318516E+004 0 0 12 (Pbcn) n - 1
REM
REM Run started: Fri, 24 Jul 2020 15:47:38 +0100 in /scratch/scratch/uccabz1/launch_tmp/launcher_2020-07-24-13-55-40-652266
REM CASTEP 19.11| from code version Version unavailable
REM Functional Perdew Burke Ernzerhof Relativity Koelling-Harmon Dispersion off
REM Cut-off 300.0000 eV Grid scale 1.7500 Gmax 15.5288 1/A FBSC none
REM MP grid 3 3 2 Offset 0.000 0.000 0.000 No. kpts 4 Spacing 0.07
REM Total runtime: 3451.89 s
REM Overall efficiency: 93.75 %
REM
REM 4Ag2Se_TETRA.cell (4020362940262d3df87d4014b41eb05e)
REM
REM compiler GCC version 4.9.2
REM options -cpp -iprefix /scratch/UCL/applications/gcc/4.9.2/bin/../lib/gcc/x86_64-unknown-linux-gnu/4.9.2/ -mtune=corei7 -march=x86-64 -g -O2
REM COMMAND_LINE
REM seed -1096612899 2084021982 925034602 -2025827729 -1490123013 1974201612 -94943432 -1561353603 -2113743583 1167039080 -1189554177 598091835
REM
REM Se 3|2.1|7|7|9|40:41:32(qc=5)
REM Ag 3|2.2|7|7|9|40U:50:41:42(qc=5)
REM 
CELL 1.54180    5.73265    6.07612    7.64077   90.00000   90.00000   90.00000
LATT -1
SFAC Se Ag 
Se     1  0.2500000000000 -0.3842859149215  0.0420312000000 1.0
Se     1 -0.2500000000000  0.3842859149215 -0.4579688000000 1.0
Se     1 -0.2500000000000  0.1157140850785  0.0420312000000 1.0
Se     1  0.2500000000000 -0.1157140850785 -0.4579688000000 1.0
Ag     2  0.4763341548667  0.3695942837274  0.2642388501826 1.0
Ag     2 -0.4763341548667 -0.3695942837274 -0.2357611498174 1.0
Ag     2 -0.4763341548667 -0.1304057162726  0.2642388501826 1.0
Ag     2  0.4763341548667  0.1304057162726 -0.2357611498174 1.0
Ag     2 -0.0236658451333 -0.3695942837274  0.3198235498174 1.0
Ag     2  0.0236658451333  0.3695942837274 -0.1801764501826 1.0
Ag     2  0.0236658451333  0.1304057162726  0.3198235498174 1.0
Ag     2 -0.0236658451333 -0.1304057162726 -0.1801764501826 1.0
END
