TITL 4Ag2Se-200724-065452-38f9db 0.0492 252.085168 -4.61307903E+004 0 0 12 (R3) n - 1
REM
REM Run started: Fri, 24 Jul 2020 07:53:01 +0100 in /rds/user/bz240/hpc-work/airss-fw/launch_tmp/launcher_2020-07-24-05-54-49-886830
REM CASTEP 19.11| from code version Version unavailable
REM Functional Perdew Burke Ernzerhof Relativity Koelling-Harmon Dispersion off
REM Cut-off 300.0000 eV Grid scale 1.7500 Gmax 15.5288 1/A FBSC none
REM MP grid 3 3 3 Offset 0.000 0.000 0.000 No. kpts 6 Spacing 0.07
REM Total runtime: 4496.02 s
REM Overall efficiency: 96 %
REM
REM 4Ag2Se.cell (6404a18c6b5dc90313b5c56acf317f23)
REM
REM compiler GCC version 4.8.5 20150623 (Red Hat 4.8.5-39)
REM options -cpp -mtune=generic -march=x86-64 -g -Og
REM COMMAND_LINE
REM seed 69055313 -571757461 -204936181 -925919812 410716141 -1327076461 -487774465 1243529444 -1500925599 244373368 -939043660 2021379849
REM
REM Se 3|2.1|7|7|9|40:41:32(qc=5)
REM Ag 3|2.2|7|7|9|40U:50:41:42(qc=5)
REM 
CELL 1.54180    7.12842    7.12842    7.05352   59.64813   59.64813   60.00000
LATT -1
SFAC Se Ag 
Se     1 -0.5026224854976 -0.0992147851819  0.4195146264052 1.0
Se     1  0.1823226442743 -0.5026224854976  0.4195146264052 1.0
Se     1 -0.0992147851819  0.1823226442743  0.4195146264052 1.0
Se     1  0.3564742453503  0.3564742453503 -1.0694227360510 1.0
Ag     2 -0.2652991503790 -0.5044859156590  0.6390193330970 1.0
Ag     2  0.1307657329411 -0.2652991503790  0.6390193330970 1.0
Ag     2 -0.5044859156590  0.1307657329411  0.6390193330970 1.0
Ag     2 -0.1058973969490  0.4172503367446 -0.0139999990259 1.0
Ag     2 -0.2973529407697 -0.1058973969490 -0.0139999990259 1.0
Ag     2  0.4172503367446 -0.2973529407697 -0.0139999990259 1.0
Ag     2 -0.0764913858051 -0.0764913858051  0.2294741574154 1.0
Ag     2  0.0830873009311  0.0830873009311 -0.2492619027934 1.0
END
