TITL 4Ag2Se-200724-041610-0117e9 0.0652 234.509707 -4.61326202E+004 0 0 12 (P21/c) n - 1
REM
REM Run started: Fri, 24 Jul 2020 05:14:41 +0100 in /rds/user/bz240/hpc-work/airss-fw/launch_tmp/launcher_2020-07-24-03-16-08-366411
REM CASTEP 19.11| from code version Version unavailable
REM Functional Perdew Burke Ernzerhof Relativity Koelling-Harmon Dispersion off
REM Cut-off 300.0000 eV Grid scale 1.7500 Gmax 15.5288 1/A FBSC none
REM MP grid 4 3 2 Offset 0.000 0.000 0.000 No. kpts 8 Spacing 0.07
REM Total runtime: 3656.72 s
REM Overall efficiency: 94.8571 %
REM
REM 4Ag2Se.cell (6404a18c6b5dc90313b5c56acf317f23)
REM
REM compiler GCC version 4.8.5 20150623 (Red Hat 4.8.5-39)
REM options -cpp -mtune=generic -march=x86-64 -g -Og
REM COMMAND_LINE
REM seed 1800939263 -1550158866 -595760727 -1582837490 -457137768 813147641 -1790175470 786097642 567175495 -49781911 -1195676456 839334682
REM
REM Se 3|2.1|7|7|9|40:41:32(qc=5)
REM Ag 3|2.2|7|7|9|40U:50:41:42(qc=5)
REM 
CELL 1.54180    4.13957    6.83412    8.32565   90.00000   95.34875   90.00000
LATT -1
SFAC Se Ag 
Se     1 -0.0642595459464 -0.4559933087792  0.2472512759053 1.0
Se     1 -0.5642595459464  0.4559933087792 -0.2527487240947 1.0
Se     1 -0.1602535568618  0.0439181580155 -0.4588044006783 1.0
Se     1  0.3397464431382 -0.0439181580155  0.0411955993217 1.0
Ag     2 -0.1153501037414 -0.3791465603925 -0.4341128239332 1.0
Ag     2  0.3846498962586  0.3791465603925  0.0658871760668 1.0
Ag     2  0.3724931832969 -0.1681863185496  0.3658507164954 1.0
Ag     2 -0.1275068167031  0.1681863185496 -0.1341492835046 1.0
Ag     2 -0.1139752523283  0.1233358718211  0.2210032868306 1.0
Ag     2 -0.6139752523283 -0.1233358718211 -0.2789967131694 1.0
Ag     2  0.3977244755810  0.3274206029304  0.4224634453803 1.0
Ag     2 -0.1022755244190 -0.3274206029304 -0.0775365546197 1.0
END
