TITL 4Ag2Se-200724-053912-2851fc -0.0252 246.044061 -4.61326530E+004 0 0 12 (R3m) n - 1
REM
REM Run started: Fri, 24 Jul 2020 06:07:23 +0100 in /scratch/scratch/uccabz1/launch_tmp/launcher_2020-07-24-04-39-10-444589
REM CASTEP 19.11| from code version Version unavailable
REM Functional Perdew Burke Ernzerhof Relativity Koelling-Harmon Dispersion off
REM Cut-off 300.0000 eV Grid scale 1.7500 Gmax 15.5288 1/A FBSC none
REM MP grid 3 3 3 Offset 0.000 0.000 0.000 No. kpts 6 Spacing 0.07
REM Total runtime: 1768.75 s
REM Overall efficiency: 91.8333 %
REM
REM 4Ag2Se.cell (6404a18c6b5dc90313b5c56acf317f23)
REM
REM compiler GCC version 4.9.2
REM options -cpp -iprefix /scratch/UCL/applications/gcc/4.9.2/bin/../lib/gcc/x86_64-unknown-linux-gnu/4.9.2/ -mtune=corei7 -march=x86-64 -g -O2
REM COMMAND_LINE
REM seed 2075981523 -2023374880 -213216841 -1384745269 2140841445 1324750404 859001581 1336584756 1089898743 -197482251 -225117057 123906511
REM
REM Se 3|2.1|7|7|9|40:41:32(qc=5)
REM Ag 3|2.2|7|7|9|40U:50:41:42(qc=5)
REM 
CELL 1.54180    6.26651    6.26651    6.26651   89.42655   89.42655   89.42655
LATT -1
SFAC Se Ag 
Se     1 -0.0505108840702 -0.0509585826346  0.4572967304173 1.0
Se     1  0.4572967304173 -0.0505108840702 -0.0509585826346 1.0
Se     1 -0.0509585826346  0.4572967304173 -0.0505108840702 1.0
Se     1  0.4605371174054  0.4605371174054  0.4605371174054 1.0
Ag     2 -0.1071513207339  0.5102462306558 -0.4862807240747 1.0
Ag     2 -0.4862807240747 -0.1071513207339  0.5102462306558 1.0
Ag     2  0.5102462306558 -0.4862807240747 -0.1071513207339 1.0
Ag     2 -0.2973551344039  0.2024848787240  0.2010961282959 1.0
Ag     2  0.2010961282959 -0.2973551344039  0.2024848787240 1.0
Ag     2  0.2024848787240  0.2010961282959 -0.2973551344039 1.0
Ag     2 -0.1096856987289 -0.1096856987289 -0.1096856987289 1.0
Ag     2  0.2099540591479  0.2099540591479  0.2099540591479 1.0
END
