TITL 4Ag2Se-200724-063116-d3a0e3 -0.0461 258.699700 -4.61314175E+004 0 0 12 (Pba2) n - 1
REM
REM Run started: Fri, 24 Jul 2020 07:23:25 +0100 in /rds/user/bz240/hpc-work/airss-fw/launch_tmp/launcher_2020-07-24-05-31-13-993331
REM CASTEP 19.11| from code version Version unavailable
REM Functional Perdew Burke Ernzerhof Relativity Koelling-Harmon Dispersion off
REM Cut-off 300.0000 eV Grid scale 1.7500 Gmax 15.5288 1/A FBSC none
REM MP grid 4 3 2 Offset 0.000 0.000 0.000 No. kpts 4 Spacing 0.07
REM Total runtime: 3159.56 s
REM Overall efficiency: 93.2222 %
REM
REM 4Ag2Se.cell (6404a18c6b5dc90313b5c56acf317f23)
REM
REM compiler GCC version 4.8.5 20150623 (Red Hat 4.8.5-39)
REM options -cpp -mtune=generic -march=x86-64 -g -Og
REM COMMAND_LINE
REM seed 1699640647 -964317356 1700196424 -1058481489 -1673222035 2040704147 -646640164 2059605082 -1392722273 1738595359 1591411474 815318024
REM
REM Se 3|2.1|7|7|9|40:41:32(qc=5)
REM Ag 3|2.2|7|7|9|40U:50:41:42(qc=5)
REM 
CELL 1.54180    3.86958    7.13562    9.36914   90.00000   90.00000   90.00000
LATT -1
SFAC Se Ag 
Se     1 -0.0836284113990  0.3209778375740  0.3171073269628 1.0
Se     1 -0.0836284113990 -0.3209778375740 -0.3171073269628 1.0
Se     1 -0.0836284113990  0.1790221624260 -0.1828926730372 1.0
Se     1 -0.0836284113990 -0.1790221624260  0.1828926730372 1.0
Ag     2  0.4247278474460 -0.4566963922383  0.1560850843748 1.0
Ag     2  0.4247278474460  0.4566963922383 -0.1560850843748 1.0
Ag     2  0.4247278474460 -0.0433036077617 -0.3439149156252 1.0
Ag     2  0.4247278474460  0.0433036077617  0.3439149156252 1.0
Ag     2  0.1330463639530 -0.1852897687512 -0.0738866053456 1.0
Ag     2  0.1330463639530  0.1852897687512  0.0738866053456 1.0
Ag     2  0.1330463639530 -0.3147102312488  0.4261133946544 1.0
Ag     2  0.1330463639530  0.3147102312488 -0.4261133946544 1.0
END
