TITL 4Ag2Se_TETRA-200724-175247-f9945b -0.0054 243.385397 -4.61324839E+004 0 0 12 (R3) n - 1
REM
REM Run started: Fri, 24 Jul 2020 18:38:39 +0100 in /scratch/scratch/uccabz1/launch_tmp/launcher_2020-07-24-16-52-45-348314
REM CASTEP 19.11| from code version Version unavailable
REM Functional Perdew Burke Ernzerhof Relativity Koelling-Harmon Dispersion off
REM Cut-off 300.0000 eV Grid scale 1.7500 Gmax 15.5288 1/A FBSC none
REM MP grid 3 3 3 Offset 0.000 0.000 0.000 No. kpts 6 Spacing 0.07
REM Total runtime: 3048.09 s
REM Overall efficiency: 92.9167 %
REM
REM 4Ag2Se_TETRA.cell (4020362940262d3df87d4014b41eb05e)
REM
REM compiler GCC version 4.9.2
REM options -cpp -iprefix /scratch/UCL/applications/gcc/4.9.2/bin/../lib/gcc/x86_64-unknown-linux-gnu/4.9.2/ -mtune=corei7 -march=x86-64 -g -O2
REM COMMAND_LINE
REM seed -1173732408 65784246 -1670103824 -1763746906 -496398682 1238337028 -1074501562 763899578 -1810771463 -1101182036 -975919824 -232516199
REM
REM Se 3|2.1|7|7|9|40:41:32(qc=5)
REM Ag 3|2.2|7|7|9|40U:50:41:42(qc=5)
REM 
CELL 1.54180    6.24383    6.24383    6.24383   89.45617   89.45617   89.45617
LATT -1
SFAC Se Ag 
Se     1  0.0743803389996 -0.3939311250745  0.0532007442896 1.0
Se     1  0.0532007442896  0.0743803389996 -0.3939311250745 1.0
Se     1 -0.3939311250745  0.0532007442896  0.0743803389996 1.0
Se     1 -0.3910574810063 -0.3910574810063 -0.3910574810063 1.0
Ag     2  0.3427671906161  0.3208581158976 -0.1674741034605 1.0
Ag     2 -0.1674741034605  0.3427671906161  0.3208581158976 1.0
Ag     2  0.3208581158976 -0.1674741034605  0.3427671906161 1.0
Ag     2  0.0520186249371 -0.4043967564932 -0.3875667298100 1.0
Ag     2 -0.3875667298100  0.0520186249371 -0.4043967564932 1.0
Ag     2 -0.4043967564932 -0.3875667298100  0.0520186249371 1.0
Ag     2  0.3427475601538  0.3427475601538  0.3427475601538 1.0
Ag     2  0.0517608209506  0.0517608209506  0.0517608209506 1.0
END
