TITL 4Ag2Se-200724-081007-0c426d 0.0379 244.183201 -4.61326606E+004 0 0 12 (P21) n - 1
REM
REM Run started: Fri, 24 Jul 2020 09:12:42 +0100 in /rds/user/bz240/hpc-work/airss-fw/launch_tmp/launcher_2020-07-24-07-10-05-854730
REM CASTEP 19.11| from code version Version unavailable
REM Functional Perdew Burke Ernzerhof Relativity Koelling-Harmon Dispersion off
REM Cut-off 300.0000 eV Grid scale 1.7500 Gmax 15.5288 1/A FBSC none
REM MP grid 3 3 2 Offset 0.000 0.000 0.000 No. kpts 5 Spacing 0.07
REM Total runtime: 3762.97 s
REM Overall efficiency: 73.8889 %
REM
REM 4Ag2Se.cell (6404a18c6b5dc90313b5c56acf317f23)
REM
REM compiler GCC version 4.8.5 20150623 (Red Hat 4.8.5-39)
REM options -cpp -mtune=generic -march=x86-64 -g -Og
REM COMMAND_LINE
REM seed 458306789 884316751 -1097116968 -825752348 -395089278 -784654538 1351609664 -172540179 777769650 -1472834220 -392589696 -816568630
REM
REM Se 3|2.1|7|7|9|40:41:32(qc=5)
REM Ag 3|2.2|7|7|9|40U:50:41:42(qc=5)
REM 
CELL 1.54180    4.90910    6.86258    7.26044   90.00000   90.00000   93.33489
LATT -1
SFAC Se Ag 
Se     1 -0.0559975852230  0.2105783968048 -0.0960214250877 1.0
Se     1  0.0559975852230 -0.2105783968048  0.4039785749123 1.0
Se     1 -0.3486102021967  0.2304611022441  0.4022221115361 1.0
Se     1  0.3486102021967 -0.2304611022441 -0.0977778884639 1.0
Ag     2 -0.2051220567524 -0.2317701778903  0.0896398262567 1.0
Ag     2  0.2051220567524  0.2317701778903 -0.4103601737433 1.0
Ag     2 -0.3382294954278 -0.0597189961346 -0.3482559972264 1.0
Ag     2  0.3382294954278  0.0597189961346  0.1517440027736 1.0
Ag     2  0.4943470120983  0.4046263816759 -0.0683624201235 1.0
Ag     2 -0.4943470120983 -0.4046263816759  0.4316375798765 1.0
Ag     2  0.0709452413518  0.4272914563963  0.2137882046448 1.0
Ag     2 -0.0709452413518 -0.4272914563963 -0.2862117953552 1.0
END
