TITL 4Ag2Se-200724-042142-9171aa -0.0848 270.642059 -4.61329194E+004 0 0 12 (P21/c) n - 1
REM
REM Run started: Fri, 24 Jul 2020 05:21:55 +0100 in /scratch/scratch/uccabz1/launch_tmp/launcher_2020-07-24-03-21-40-539545
REM CASTEP 19.11| from code version Version unavailable
REM Functional Perdew Burke Ernzerhof Relativity Koelling-Harmon Dispersion off
REM Cut-off 300.0000 eV Grid scale 1.7500 Gmax 15.5288 1/A FBSC none
REM MP grid 3 3 2 Offset 0.000 0.000 0.000 No. kpts 6 Spacing 0.07
REM Total runtime: 3724.84 s
REM Overall efficiency: 93.75 %
REM
REM 4Ag2Se.cell (6404a18c6b5dc90313b5c56acf317f23)
REM
REM compiler GCC version 4.9.2
REM options -cpp -iprefix /scratch/UCL/applications/gcc/4.9.2/bin/../lib/gcc/x86_64-unknown-linux-gnu/4.9.2/ -mtune=corei7 -march=x86-64 -g -O2
REM COMMAND_LINE
REM seed 1988481325 -1994933944 -1350893394 -380581620 -587916790 664584461 1883294653 1653777136 -1774330125 -1392772897 58993936 -1081203525
REM
REM Se 3|2.1|7|7|9|40:41:32(qc=5)
REM Ag 3|2.2|7|7|9|40U:50:41:42(qc=5)
REM 
CELL 1.54180    5.72067    5.77308    8.23842   90.00000   95.89529   90.00000
LATT -1
SFAC Se Ag 
Se     1  0.2779894109793 -0.2491077887221 -0.0626215082541 1.0
Se     1 -0.2779894109793  0.2508922112779 -0.4373784917459 1.0
Se     1 -0.2779894109793  0.2491077887221  0.0626215082541 1.0
Se     1  0.2779894109793 -0.2508922112779  0.4373784917459 1.0
Ag     2  0.4395782008560  0.4349955995121  0.2514772337449 1.0
Ag     2 -0.4395782008560 -0.0650044004879  0.2485227662551 1.0
Ag     2 -0.4395782008560 -0.4349955995121 -0.2514772337449 1.0
Ag     2  0.4395782008560  0.0650044004879 -0.2485227662551 1.0
Ag     2 -0.0542234111635 -0.4565644279146  0.2565907354904 1.0
Ag     2  0.0542234111635  0.0434355720854  0.2434092645096 1.0
Ag     2  0.0542234111635  0.4565644279146 -0.2565907354904 1.0
Ag     2 -0.0542234111635 -0.0434355720854 -0.2434092645096 1.0
END
