TITL 4Ag2Se-200724-031142-eb1609 -0.0311 236.132519 -4.61322925E+004 0 0 12 (C2/m) n - 1
REM
REM Run started: Fri, 24 Jul 2020 04:28:45 +0100 in /scratch/scratch/uccabz1/launch_tmp/launcher_2020-07-24-02-11-39-728861
REM CASTEP 19.11| from code version Version unavailable
REM Functional Perdew Burke Ernzerhof Relativity Koelling-Harmon Dispersion off
REM Cut-off 300.0000 eV Grid scale 1.7500 Gmax 15.5288 1/A FBSC none
REM MP grid 4 3 2 Offset 0.000 0.000 0.000 No. kpts 6 Spacing 0.07
REM Total runtime: 5025.33 s
REM Overall efficiency: 95 %
REM
REM 4Ag2Se.cell (6404a18c6b5dc90313b5c56acf317f23)
REM
REM compiler GCC version 4.9.2
REM options -cpp -iprefix /scratch/UCL/applications/gcc/4.9.2/bin/../lib/gcc/x86_64-unknown-linux-gnu/4.9.2/ -mtune=corei7 -march=x86-64 -g -O2
REM COMMAND_LINE
REM seed 2026835326 -1135011978 -276358124 -640619965 -1367930173 175401006 -15471544 1076089069 -447090674 218290580 31478890 2009304046
REM
REM Se 3|2.1|7|7|9|40:41:32(qc=5)
REM Ag 3|2.2|7|7|9|40U:50:41:42(qc=5)
REM 
CELL 1.54180    4.16201    6.63298    8.83703  104.55306   90.00000   90.00000
LATT -1
SFAC Se Ag 
Se     1  0.2873940888291 -0.1708236749550 -0.1806771689271 1.0
Se     1  0.2873940888291  0.1708236749550  0.1806771689271 1.0
Se     1 -0.2148916557593 -0.1711816323243  0.3203960983414 1.0
Se     1 -0.2148916557593  0.1711816323243 -0.3203960983414 1.0
Ag     2 -0.2171468711757  0.4218460446559  0.3365184790204 1.0
Ag     2 -0.2171468711757 -0.4218460446559 -0.3365184790204 1.0
Ag     2 -0.2118565094953  0.2432842265541 -0.0041560539342 1.0
Ag     2 -0.2118565094953 -0.2432842265541  0.0041560539342 1.0
Ag     2  0.2855588631113 -0.4217831388239  0.1635573603139 1.0
Ag     2  0.2855588631113  0.4217831388239 -0.1635573603139 1.0
Ag     2  0.2809998844898  0.2434735876465  0.4962239430239 1.0
Ag     2  0.2809998844898 -0.2434735876465 -0.4962239430239 1.0
END
