TITL 4Ag2Se_TETRA-200724-145135-f6f841 -0.0219 251.412753 -4.61304677E+004 0 0 12 (Pmna) n - 1
REM
REM Run started: Fri, 24 Jul 2020 15:25:47 +0100 in /scratch/scratch/uccabz1/launch_tmp/launcher_2020-07-24-13-51-33-111382
REM CASTEP 19.11| from code version Version unavailable
REM Functional Perdew Burke Ernzerhof Relativity Koelling-Harmon Dispersion off
REM Cut-off 300.0000 eV Grid scale 1.7500 Gmax 15.5288 1/A FBSC none
REM MP grid 4 2 2 Offset 0.000 0.000 0.000 No. kpts 2 Spacing 0.07
REM Total runtime: 2153.82 s
REM Overall efficiency: 84.3333 %
REM
REM 4Ag2Se_TETRA.cell (4020362940262d3df87d4014b41eb05e)
REM
REM compiler GCC version 4.9.2
REM options -cpp -iprefix /scratch/UCL/applications/gcc/4.9.2/bin/../lib/gcc/x86_64-unknown-linux-gnu/4.9.2/ -mtune=corei7 -march=x86-64 -g -O2
REM COMMAND_LINE
REM seed 583414463 1506561416 636904080 199184926 -1999774788 -842199197 -640998235 -575604582 -362429869 761126953 -844375583 1481195455
REM
REM Se 3|2.1|7|7|9|40:41:32(qc=5)
REM Ag 3|2.2|7|7|9|40U:50:41:42(qc=5)
REM 
CELL 1.54180    4.75325    7.22736    7.31841   90.00000   90.00000   90.00000
LATT -1
SFAC Se Ag 
Se     1  0.2500000000000 -0.4956429458427  0.2473548633846 1.0
Se     1 -0.2500000000000  0.0043570541573 -0.2473548633846 1.0
Se     1 -0.2500000000000 -0.0043570541573  0.2473548633846 1.0
Se     1  0.2500000000000  0.4956429458427 -0.2473548633846 1.0
Ag     2  0.2500000000000  0.1465151350444  0.1155825512648 1.0
Ag     2 -0.2500000000000 -0.3534848649557 -0.1155825512648 1.0
Ag     2 -0.2500000000000  0.3534848649556  0.1155825512648 1.0
Ag     2  0.2500000000000 -0.1465151350444 -0.1155825512648 1.0
Ag     2  0.2500000000000 -0.1450625598649  0.3839238324962 1.0
Ag     2 -0.2500000000000  0.3549374401351 -0.3839238324962 1.0
Ag     2 -0.2500000000000 -0.3549374401351  0.3839238324962 1.0
Ag     2  0.2500000000000  0.1450625598649 -0.3839238324962 1.0
END
