TITL 4Ag2Se_TETRA-200724-162606-5b993f -0.0074 269.435308 -4.61302550E+004 0 0 12 (C2) n - 1
REM
REM Run started: Fri, 24 Jul 2020 17:39:51 +0100 in /scratch/scratch/uccabz1/launch_tmp/launcher_2020-07-24-15-26-04-608552
REM CASTEP 19.11| from code version Version unavailable
REM Functional Perdew Burke Ernzerhof Relativity Koelling-Harmon Dispersion off
REM Cut-off 300.0000 eV Grid scale 1.7500 Gmax 15.5288 1/A FBSC none
REM MP grid 3 3 3 Offset 0.000 0.000 0.000 No. kpts 10 Spacing 0.07
REM Total runtime: 4888.9 s
REM Overall efficiency: 95.25 %
REM
REM 4Ag2Se_TETRA.cell (4020362940262d3df87d4014b41eb05e)
REM
REM compiler GCC version 4.9.2
REM options -cpp -iprefix /scratch/UCL/applications/gcc/4.9.2/bin/../lib/gcc/x86_64-unknown-linux-gnu/4.9.2/ -mtune=corei7 -march=x86-64 -g -O2
REM COMMAND_LINE
REM seed 718712825 -1715475346 2106768175 2133600938 -433683748 -1580699036 -2129677557 -1275174923 -1816505306 883797595 -630319596 560830593
REM
REM Se 3|2.1|7|7|9|40:41:32(qc=5)
REM Ag 3|2.2|7|7|9|40U:50:41:42(qc=5)
REM 
CELL 1.54180    6.58866    6.39547    6.39547   91.10355   90.22802   90.22802
LATT -1
SFAC Se Ag 
Se     1 -0.4804043893482 -0.3999528493656 -0.1670993911080 1.0
Se     1  0.4804043893482  0.1670993911080  0.3999528493656 1.0
Se     1 -0.0004113039239 -0.1551245171135 -0.3932759620839 1.0
Se     1  0.0004113039239  0.3932759620839  0.1551245171135 1.0
Ag     2 -0.3855714057220 -0.4838195525354  0.2370006685633 1.0
Ag     2  0.3855714057220 -0.2370006685633  0.4838195525354 1.0
Ag     2  0.3102456983466 -0.0494938882787 -0.1248058199976 1.0
Ag     2 -0.3102456983466  0.1248058199976  0.0494938882787 1.0
Ag     2 -0.1894219227589  0.2037551671022 -0.3605064177367 1.0
Ag     2  0.1894219227589  0.3605064177367 -0.2037551671022 1.0
Ag     2 -0.1132377172558 -0.2518682613759 -0.0186456792040 1.0
Ag     2  0.1132377172558  0.0186456792040  0.2518682613759 1.0
END
