TITL 4Ag2Se-200724-043053-79a2e5 -0.0067 242.804129 -4.61312580E+004 0 0 12 (Pmna) n - 1
REM
REM Run started: Fri, 24 Jul 2020 04:49:27 +0100 in /rds/user/bz240/hpc-work/airss-fw/launch_tmp/launcher_2020-07-24-03-30-51-208489
REM CASTEP 19.11| from code version Version unavailable
REM Functional Perdew Burke Ernzerhof Relativity Koelling-Harmon Dispersion off
REM Cut-off 300.0000 eV Grid scale 1.7500 Gmax 15.5288 1/A FBSC none
REM MP grid 3 3 2 Offset 0.000 0.000 0.000 No. kpts 4 Spacing 0.07
REM Total runtime: 1306.14 s
REM Overall efficiency: 93.8 %
REM
REM 4Ag2Se.cell (6404a18c6b5dc90313b5c56acf317f23)
REM
REM compiler GCC version 4.8.5 20150623 (Red Hat 4.8.5-39)
REM options -cpp -mtune=generic -march=x86-64 -g -Og
REM COMMAND_LINE
REM seed 1153728638 1941541761 -1548766352 1000303184 -966810165 -1307620789 -1325522035 463775395 263543380 -1816493285 -2051916640 -1093479723
REM
REM Se 3|2.1|7|7|9|40:41:32(qc=5)
REM Ag 3|2.2|7|7|9|40U:50:41:42(qc=5)
REM 
CELL 1.54180    5.64392    5.68168    7.57179   90.00000   90.00000   90.00000
LATT -1
SFAC Se Ag 
Se     1 -0.4908112541573 -0.4153114000000 -0.2759066098492 1.0
Se     1  0.4908112541573 -0.4153114000000  0.2759066098492 1.0
Se     1 -0.0091887458427  0.0846886000000 -0.2759066098492 1.0
Se     1  0.0091887458427  0.0846886000000  0.2759066098492 1.0
Ag     2  0.2500000000000 -0.1653114000000 -0.0044119920326 1.0
Ag     2 -0.2500000000000 -0.1653114000000  0.0044119920326 1.0
Ag     2  0.2500000000000  0.3346886000000 -0.0044119920326 1.0
Ag     2 -0.2500000000000  0.3346886000000  0.0044119920326 1.0
Ag     2  0.4917311961421  0.0846886000000 -0.3036794885168 1.0
Ag     2 -0.4917311961421  0.0846886000000  0.3036794885168 1.0
Ag     2  0.0082688038579 -0.4153114000000 -0.3036794885168 1.0
Ag     2 -0.0082688038579 -0.4153114000000  0.3036794885168 1.0
END
