TITL 4Ag2Se_TETRA-200724-175601-31b01b 0.0517 258.248694 -4.61311590E+004 0 0 12 (C2) n - 1
REM
REM Run started: Fri, 24 Jul 2020 19:07:23 +0100 in /scratch/scratch/uccabz1/launch_tmp/launcher_2020-07-24-16-55-59-326075
REM CASTEP 19.11| from code version Version unavailable
REM Functional Perdew Burke Ernzerhof Relativity Koelling-Harmon Dispersion off
REM Cut-off 300.0000 eV Grid scale 1.7500 Gmax 15.5288 1/A FBSC none
REM MP grid 3 3 3 Offset 0.000 0.000 0.000 No. kpts 10 Spacing 0.07
REM Total runtime: 4771.97 s
REM Overall efficiency: 95.4167 %
REM
REM 4Ag2Se_TETRA.cell (4020362940262d3df87d4014b41eb05e)
REM
REM compiler GCC version 4.9.2
REM options -cpp -iprefix /scratch/UCL/applications/gcc/4.9.2/bin/../lib/gcc/x86_64-unknown-linux-gnu/4.9.2/ -mtune=corei7 -march=x86-64 -g -O2
REM COMMAND_LINE
REM seed 114545077 -1599525393 580125210 410630077 -391315299 -1877464237 455715194 1699583700 1884128564 33237868 -2025047193 -1600317190
REM
REM Se 3|2.1|7|7|9|40:41:32(qc=5)
REM Ag 3|2.2|7|7|9|40U:50:41:42(qc=5)
REM 
CELL 1.54180    6.83688    6.16416    6.16416   87.15726   94.00928   94.00928
LATT -1
SFAC Se Ag 
Se     1  0.2097670770530 -0.0900523979021  0.4328273483912 1.0
Se     1 -0.2097670770530 -0.4328273483912  0.0900523979021 1.0
Se     1  0.2692844881150  0.3937980672292 -0.1736524208713 1.0
Se     1 -0.2692844881150  0.1736524208713 -0.3937980672292 1.0
Ag     2  0.4623889024446 -0.2226125334833 -0.2411373703154 1.0
Ag     2 -0.4623889024446  0.2411373703154  0.2226125334833 1.0
Ag     2  0.2860494291816 -0.4037074425325  0.1908810215242 1.0
Ag     2 -0.2860494291816 -0.1908810215242  0.4037074425325 1.0
Ag     2 -0.0008614167340 -0.3155298056811 -0.2555529896168 1.0
Ag     2  0.0008614167340  0.2555529896168  0.3155298056811 1.0
Ag     2  0.2119319712275  0.0170529566653  0.0078211551835 1.0
Ag     2 -0.2119319712275 -0.0078211551835 -0.0170529566653 1.0
END
