TITL 4Ag2Se-200724-092123-5087ec 0.0436 263.147856 -4.61317803E+004 0 0 12 (P2/m) n - 1
REM
REM Run started: Fri, 24 Jul 2020 10:38:47 +0100 in /rds/user/bz240/hpc-work/airss-fw/launch_tmp/launcher_2020-07-24-08-21-21-839330
REM CASTEP 19.11| from code version Version unavailable
REM Functional Perdew Burke Ernzerhof Relativity Koelling-Harmon Dispersion off
REM Cut-off 300.0000 eV Grid scale 1.7500 Gmax 15.5288 1/A FBSC none
REM MP grid 3 3 2 Offset 0.000 0.000 0.000 No. kpts 5 Spacing 0.07
REM Total runtime: 5085.59 s
REM Overall efficiency: 77.2222 %
REM
REM 4Ag2Se.cell (6404a18c6b5dc90313b5c56acf317f23)
REM
REM compiler GCC version 4.8.5 20150623 (Red Hat 4.8.5-39)
REM options -cpp -mtune=generic -march=x86-64 -g -Og
REM COMMAND_LINE
REM seed 1059961277 -1035287493 445533434 -1414181111 466957811 -1276860295 -535646485 -273469412 1088291433 1471935462 -1607384675 -181555165
REM
REM Se 3|2.1|7|7|9|40:41:32(qc=5)
REM Ag 3|2.2|7|7|9|40U:50:41:42(qc=5)
REM 
CELL 1.54180    5.31244    5.98188    8.53697   90.00000   90.00000  104.07388
LATT -1
SFAC Se Ag 
Se     1 -0.3200646177029 -0.1822060065893 -0.0008679052923 1.0
Se     1  0.3200646177029  0.1822060065893 -0.0008679052923 1.0
Se     1 -0.3200646177029 -0.1822060065893  0.4991320947077 1.0
Se     1  0.3200646177029  0.1822060065893  0.4991320947077 1.0
Ag     2  0.1689057218450 -0.2779630078681  0.0002270817370 1.0
Ag     2 -0.1689057218450  0.2779630078681  0.0002270817370 1.0
Ag     2  0.1689057218450 -0.2779630078681 -0.4997729182630 1.0
Ag     2 -0.1689057218450  0.2779630078681 -0.4997729182630 1.0
Ag     2  0.2227433829299  0.4026322221870  0.2494983735553 1.0
Ag     2 -0.2227433829299 -0.4026322221870  0.2494983735553 1.0
Ag     2 -0.2227433829299 -0.4026322221870 -0.2505016264447 1.0
Ag     2  0.2227433829299  0.4026322221870 -0.2505016264447 1.0
END
