TITL 4Ag2Se-200724-032242-0cd5f1 0.0045 240.973482 -4.61325431E+004 0 0 12 (Pbcm) n - 1
REM
REM Run started: Fri, 24 Jul 2020 05:15:18 +0100 in /scratch/scratch/uccabz1/launch_tmp/launcher_2020-07-24-02-22-40-519567
REM CASTEP 19.11| from code version Version unavailable
REM Functional Perdew Burke Ernzerhof Relativity Koelling-Harmon Dispersion off
REM Cut-off 300.0000 eV Grid scale 1.7500 Gmax 15.5288 1/A FBSC none
REM MP grid 3 3 3 Offset 0.000 0.000 0.000 No. kpts 8 Spacing 0.07
REM Total runtime: 7381.92 s
REM Overall efficiency: 95.5833 %
REM
REM 4Ag2Se.cell (6404a18c6b5dc90313b5c56acf317f23)
REM
REM compiler GCC version 4.9.2
REM options -cpp -iprefix /scratch/UCL/applications/gcc/4.9.2/bin/../lib/gcc/x86_64-unknown-linux-gnu/4.9.2/ -mtune=corei7 -march=x86-64 -g -O2
REM COMMAND_LINE
REM seed 269474838 1141530342 -1207758918 1924007639 -781520485 1075238447 1619085448 2131887374 -1612939256 -1021289343 1591217993 -679621025
REM
REM Se 3|2.1|7|7|9|40:41:32(qc=5)
REM Ag 3|2.2|7|7|9|40U:50:41:42(qc=5)
REM 
CELL 1.54180    4.88582    6.98895    7.05700   90.00000   90.00000   90.00000
LATT -1
SFAC Se Ag 
Se     1  0.2504278839514 -0.2057391481748 -0.0715020951782 1.0
Se     1 -0.2504278839514  0.2057391481748 -0.0715020951782 1.0
Se     1  0.2495721160486  0.2942608518252 -0.5036579048218 1.0
Se     1 -0.2495721160486 -0.2942608518252 -0.5036579048218 1.0
Ag     2 -0.2501581621696  0.1066050134984  0.5449628205654 1.0
Ag     2  0.2501581621696 -0.1066050134984  0.5449628205654 1.0
Ag     2 -0.2499945534913 -0.1060817911398  0.1713448027334 1.0
Ag     2  0.2499945534913  0.1060817911398  0.1713448027334 1.0
Ag     2 -0.2500054465087  0.3939182088602  0.2534951972666 1.0
Ag     2  0.2500054465087 -0.3939182088602  0.2534951972666 1.0
Ag     2  0.2498418378304  0.3933949865016 -0.1201228205654 1.0
Ag     2 -0.2498418378304 -0.3933949865016 -0.1201228205654 1.0
END
