TITL 4Ag2Se_TETRA-200724-180939-bf3d4c 0.0170 249.404778 -4.61319986E+004 0 0 12 (Pnnm) n - 1
REM
REM Run started: Fri, 24 Jul 2020 18:54:17 +0100 in /scratch/scratch/uccabz1/launch_tmp/launcher_2020-07-24-17-09-38-024303
REM CASTEP 19.11| from code version Version unavailable
REM Functional Perdew Burke Ernzerhof Relativity Koelling-Harmon Dispersion off
REM Cut-off 300.0000 eV Grid scale 1.7500 Gmax 15.5288 1/A FBSC none
REM MP grid 2 2 4 Offset 0.000 0.000 0.000 No. kpts 4 Spacing 0.07
REM Total runtime: 2968.11 s
REM Overall efficiency: 93.0833 %
REM
REM 4Ag2Se_TETRA.cell (4020362940262d3df87d4014b41eb05e)
REM
REM compiler GCC version 4.9.2
REM options -cpp -iprefix /scratch/UCL/applications/gcc/4.9.2/bin/../lib/gcc/x86_64-unknown-linux-gnu/4.9.2/ -mtune=corei7 -march=x86-64 -g -O2
REM COMMAND_LINE
REM seed 1247652734 -112331072 88545519 -681700920 831414705 1844874752 1949046201 1524826689 -132422476 -99811699 -25811595 585549330
REM
REM Se 3|2.1|7|7|9|40:41:32(qc=5)
REM Ag 3|2.2|7|7|9|40U:50:41:42(qc=5)
REM 
CELL 1.54180    7.95524    7.79878    4.02001   90.00000   90.00000   89.78748
LATT -1
SFAC Se Ag 
Se     1 -0.0639281266672  0.2573401125536 -0.2769217306313 1.0
Se     1  0.0639281266672 -0.2573401125536 -0.2769217306313 1.0
Se     1  0.4360481516635  0.2429854144646  0.2231192360015 1.0
Se     1 -0.4360481516635 -0.2429854144646  0.2231192360015 1.0
Ag     2  0.3255081214034 -0.0202956483853 -0.2829887807076 1.0
Ag     2 -0.3255081214034  0.0202956483853 -0.2829887807076 1.0
Ag     2  0.3768247605118 -0.3758766608766 -0.2819818471712 1.0
Ag     2 -0.3768247605118  0.3758766608766 -0.2819818471712 1.0
Ag     2  0.1227789136710  0.1241998887494  0.2179370464076 1.0
Ag     2 -0.1227789136710 -0.1241998887494  0.2179370464076 1.0
Ag     2  0.1746020378005  0.4795623309514  0.2171322761009 1.0
Ag     2 -0.1746020378005 -0.4795623309514  0.2171322761009 1.0
END
