TITL 4Ag2Se-200724-092950-db165a 0.0074 260.140112 -4.61325315E+004 0 0 12 (Fdd2) n - 1
REM
REM Run started: Fri, 24 Jul 2020 10:41:39 +0100 in /rds/user/bz240/hpc-work/airss-fw/launch_tmp/launcher_2020-07-24-08-29-48-737396
REM CASTEP 19.11| from code version Version unavailable
REM Functional Perdew Burke Ernzerhof Relativity Koelling-Harmon Dispersion off
REM Cut-off 300.0000 eV Grid scale 1.7500 Gmax 15.5288 1/A FBSC none
REM MP grid 3 3 3 Offset 0.000 0.000 0.000 No. kpts 8 Spacing 0.07
REM Total runtime: 4422.64 s
REM Overall efficiency: 94.625 %
REM
REM 4Ag2Se.cell (6404a18c6b5dc90313b5c56acf317f23)
REM
REM compiler GCC version 4.8.5 20150623 (Red Hat 4.8.5-39)
REM options -cpp -mtune=generic -march=x86-64 -g -Og
REM COMMAND_LINE
REM seed -2035029382 1537519170 150556621 887695932 -882142897 1291215168 -377440925 1442196241 915141252 1812206343 147511655 -1436237386
REM
REM Se 3|2.1|7|7|9|40:41:32(qc=5)
REM Ag 3|2.2|7|7|9|40U:50:41:42(qc=5)
REM 
CELL 1.54180    6.24723    6.24723    7.89562  110.61690  110.61690   96.31215
LATT -1
SFAC Se Ag 
Se     1  0.4713069526964 -0.0332660394309  0.4847819964075 1.0
Se     1  0.0332660394309 -0.4713069526965 -0.4847819964075 1.0
Se     1  0.2680480358384  0.2634750437111 -0.0152180035925 1.0
Se     1 -0.2634750437111 -0.2680480358384  0.0152180035925 1.0
Ag     2  0.4502941094211 -0.0805956345136 -0.1928547380244 1.0
Ag     2  0.0805956345136 -0.4502941094211  0.1928547380244 1.0
Ag     2 -0.3622591035108 -0.3931488474455  0.3071452619756 1.0
Ag     2  0.3931488474455  0.3622591035108 -0.3071452619756 1.0
Ag     2 -0.1130547429989  0.2985216930632 -0.2781406455431 1.0
Ag     2 -0.2985216930632  0.1130547429989  0.2781406455430 1.0
Ag     2  0.1733376613938  0.0849140974558  0.2218593544569 1.0
Ag     2 -0.0849140974558 -0.1733376613938 -0.2218593544570 1.0
END
