TITL 4Ag2Se_TETRA-200724-160741-a55a27 -0.0179 261.438445 -4.61304692E+004 0 0 12 (P-1) n - 1
REM
REM Run started: Fri, 24 Jul 2020 17:56:21 +0100 in /scratch/scratch/uccabz1/launch_tmp/launcher_2020-07-24-15-07-39-237135
REM CASTEP 19.11| from code version Version unavailable
REM Functional Perdew Burke Ernzerhof Relativity Koelling-Harmon Dispersion off
REM Cut-off 300.0000 eV Grid scale 1.7500 Gmax 15.5288 1/A FBSC none
REM MP grid 3 4 2 Offset 0.000 0.000 0.000 No. kpts 12 Spacing 0.07
REM Total runtime: 7124.37 s
REM Overall efficiency: 96.5833 %
REM
REM 4Ag2Se_TETRA.cell (4020362940262d3df87d4014b41eb05e)
REM
REM compiler GCC version 4.9.2
REM options -cpp -iprefix /scratch/UCL/applications/gcc/4.9.2/bin/../lib/gcc/x86_64-unknown-linux-gnu/4.9.2/ -mtune=corei7 -march=x86-64 -g -O2
REM COMMAND_LINE
REM seed -1325119421 -1305836406 364202309 -936672995 -766994708 -402988387 -1878782279 -1644907369 -19877630 2093075332 426012600 -1221318112
REM
REM Se 3|2.1|7|7|9|40:41:32(qc=5)
REM Ag 3|2.2|7|7|9|40U:50:41:42(qc=5)
REM 
CELL 1.54180    4.86956    4.71292   11.52063   91.09816   81.49233   90.07237
LATT -1
SFAC Se Ag 
Se     1 -0.2227797551735  0.2447107908578  0.4130162849170 1.0
Se     1  0.2227797551735 -0.2447107908578 -0.4130162849170 1.0
Se     1 -0.2943776005939 -0.2631763911961 -0.1104065539851 1.0
Se     1  0.2943776005939  0.2631763911961  0.1104065539851 1.0
Ag     2  0.3203568983533  0.3910388822979  0.3378463099744 1.0
Ag     2 -0.3203568983533 -0.3910388822979 -0.3378463099744 1.0
Ag     2 -0.1578377596326  0.2496849607592 -0.0014170414878 1.0
Ag     2  0.1578377596326 -0.2496849607592  0.0014170414878 1.0
Ag     2 -0.4154972098768 -0.2420845242181  0.1489062949469 1.0
Ag     2  0.4154972098768  0.2420845242181 -0.1489062949469 1.0
Ag     2  0.0182118263896 -0.1320902276991  0.2687386121659 1.0
Ag     2 -0.0182118263896  0.1320902276991 -0.2687386121659 1.0
END
