TITL 4Ag2Se_TETRA-200724-124838-8b06ae -0.0090 234.869663 -4.61322518E+004 0 0 12 (P-1) n - 1
REM
REM Run started: Fri, 24 Jul 2020 14:23:06 +0100 in /scratch/scratch/uccabz1/launch_tmp/launcher_2020-07-24-12-40-43-330151
REM CASTEP 19.11| from code version Version unavailable
REM Functional Perdew Burke Ernzerhof Relativity Koelling-Harmon Dispersion off
REM Cut-off 300.0000 eV Grid scale 1.7500 Gmax 15.5288 1/A FBSC none
REM MP grid 3 2 3 Offset 0.000 0.000 0.000 No. kpts 9 Spacing 0.07
REM Total runtime: 2850.2 s
REM Overall efficiency: 75.3636 %
REM
REM
REM
REM compiler GCC version 4.8.5 20150623 (Red Hat 4.8.5-39)
REM options -cpp -mtune=generic -march=x86-64 -g -Og
REM COMMAND_LINE
REM seed -297442950 1567759051 1008341647 1474256200 238323314 1153862956 2121932117 -1392248972 -1740659906 1467694515 -346344363 -859886573
REM
REM Se 3|2.1|7|7|9|40:41:32(qc=5)
REM Ag 3|2.2|7|7|9|40U:50:41:42(qc=5)
REM 
CELL 1.54180    5.83747    7.39681    5.50310   94.55947   87.33297   97.13297
LATT -1
SFAC Se Ag 
Se     1 -0.3512874901057  0.2801794220206  0.0291620042369 1.0
Se     1  0.3512874901057 -0.2801794220206 -0.0291620042369 1.0
Se     1 -0.1517365610001 -0.2876777488029  0.4634428912394 1.0
Se     1  0.1517365610001  0.2876777488029 -0.4634428912394 1.0
Ag     2 -0.1847491199831 -0.3631519991121 -0.0535249317589 1.0
Ag     2  0.1847491199831  0.3631519991121  0.0535249317589 1.0
Ag     2  0.3595960615352  0.0277169985259 -0.2717429441091 1.0
Ag     2 -0.3595960615352 -0.0277169985259  0.2717429441091 1.0
Ag     2 -0.3140337670436  0.3524207034913 -0.4711884405064 1.0
Ag     2  0.3140337670436 -0.3524207034913  0.4711884405064 1.0
Ag     2 -0.1433817103906  0.0160615549508 -0.2276487210968 1.0
Ag     2  0.1433817103906 -0.0160615549508  0.2276487210968 1.0
END
