TITL 4Ag2Se-200724-065155-d4866c -0.0274 261.796418 -4.61313607E+004 0 0 12 (C2) n - 1
REM
REM Run started: Fri, 24 Jul 2020 09:33:08 +0100 in /rds/user/bz240/hpc-work/airss-fw/launch_tmp/launcher_2020-07-24-05-51-53-800126
REM CASTEP 19.11| from code version Version unavailable
REM Functional Perdew Burke Ernzerhof Relativity Koelling-Harmon Dispersion off
REM Cut-off 300.0000 eV Grid scale 1.7500 Gmax 15.5288 1/A FBSC none
REM MP grid 3 3 2 Offset 0.000 0.000 0.000 No. kpts 6 Spacing 0.07
REM Total runtime: 9812.09 s
REM Overall efficiency: 96.25 %
REM
REM 4Ag2Se.cell (6404a18c6b5dc90313b5c56acf317f23)
REM
REM compiler GCC version 4.8.5 20150623 (Red Hat 4.8.5-39)
REM options -cpp -mtune=generic -march=x86-64 -g -Og
REM COMMAND_LINE
REM seed -1792481594 1178922927 592216504 1405890860 -1651593686 -605313090 1768522753 -621490655 -1243649815 1361880920 1066624868 422874851
REM
REM Se 3|2.1|7|7|9|40:41:32(qc=5)
REM Ag 3|2.2|7|7|9|40U:50:41:42(qc=5)
REM 
CELL 1.54180    5.49902    5.49902    8.72843   93.65370   93.65370   84.60851
LATT -1
SFAC Se Ag 
Se     1  0.2045679516901 -0.4121439319034  0.3041883796309 1.0
Se     1  0.4121439319034 -0.2045679516901 -0.3041883796309 1.0
Se     1 -0.0193059788084  0.2518088981413 -0.1275013339187 1.0
Se     1 -0.2518088981413  0.0193059788084  0.1275013339187 1.0
Ag     2  0.0233990234187  0.1767257895935  0.3728444325521 1.0
Ag     2 -0.1767257895935 -0.0233990234187 -0.3728444325521 1.0
Ag     2 -0.3036378788601 -0.3200679504391  0.3260931127697 1.0
Ag     2  0.3200679504391  0.3036378788601 -0.3260931127697 1.0
Ag     2 -0.4808879421500  0.1988604546134  0.3818871080947 1.0
Ag     2 -0.1988604546134  0.4808879421500 -0.3818871080947 1.0
Ag     2 -0.3139512388037 -0.3593426235189 -0.0582375144145 1.0
Ag     2  0.3593426235189  0.3139512388037  0.0582375144145 1.0
END
