TITL 4Ag2Se-200724-055447-aa28bc 0.0144 254.161886 -4.61326102E+004 0 0 12 (P212121) n - 1
REM
REM Run started: Fri, 24 Jul 2020 06:17:56 +0100 in /rds/user/bz240/hpc-work/airss-fw/launch_tmp/launcher_2020-07-24-04-54-45-960577
REM CASTEP 19.11| from code version Version unavailable
REM Functional Perdew Burke Ernzerhof Relativity Koelling-Harmon Dispersion off
REM Cut-off 300.0000 eV Grid scale 1.7500 Gmax 15.5288 1/A FBSC none
REM MP grid 4 3 2 Offset 0.000 0.000 0.000 No. kpts 4 Spacing 0.07
REM Total runtime: 1412.18 s
REM Overall efficiency: 91 %
REM
REM 4Ag2Se.cell (6404a18c6b5dc90313b5c56acf317f23)
REM
REM compiler GCC version 4.8.5 20150623 (Red Hat 4.8.5-39)
REM options -cpp -mtune=generic -march=x86-64 -g -Og
REM COMMAND_LINE
REM seed 1872483946 1189141541 417114563 1694338811 -1731444349 -1162517537 -1800180882 -205973601 2037184357 -1222655409 1585270692 298350291
REM
REM Se 3|2.1|7|7|9|40:41:32(qc=5)
REM Ag 3|2.2|7|7|9|40U:50:41:42(qc=5)
REM 
CELL 1.54180    4.32929    5.30418   11.06816   90.00000   90.00000   90.00000
LATT -1
SFAC Se Ag 
Se     1 -0.0505833809523  0.2843663227487  0.1436699903599 1.0
Se     1 -0.4494166190477 -0.2156336772513 -0.1436699903599 1.0
Se     1  0.0505833809523  0.2156336772513 -0.3563300096401 1.0
Se     1  0.4494166190477 -0.2843663227487  0.3563300096401 1.0
Ag     2  0.0666917131233 -0.4447125475418 -0.0479867552008 1.0
Ag     2  0.4333082868767  0.0552874524582  0.0479867552008 1.0
Ag     2 -0.0666917131233 -0.0552874524582  0.4520132447992 1.0
Ag     2 -0.4333082868767  0.4447125475418 -0.4520132447992 1.0
Ag     2  0.4371356071966  0.2161584070267  0.3103017341695 1.0
Ag     2  0.0628643928034 -0.2838415929733 -0.3103017341695 1.0
Ag     2 -0.4371356071966  0.2838415929733 -0.1896982658305 1.0
Ag     2 -0.0628643928034 -0.2161584070267  0.1896982658305 1.0
END
