TITL 4Ag2Se_TETRA-200724-161106-32206c -0.0011 244.145313 -4.61324235E+004 0 0 12 (R3) n - 1
REM
REM Run started: Fri, 24 Jul 2020 16:55:58 +0100 in /scratch/scratch/uccabz1/launch_tmp/launcher_2020-07-24-15-11-05-263223
REM CASTEP 19.11| from code version Version unavailable
REM Functional Perdew Burke Ernzerhof Relativity Koelling-Harmon Dispersion off
REM Cut-off 300.0000 eV Grid scale 1.7500 Gmax 15.5288 1/A FBSC none
REM MP grid 3 3 3 Offset 0.000 0.000 0.000 No. kpts 6 Spacing 0.07
REM Total runtime: 2983.03 s
REM Overall efficiency: 92.5833 %
REM
REM 4Ag2Se_TETRA.cell (4020362940262d3df87d4014b41eb05e)
REM
REM compiler GCC version 4.9.2
REM options -cpp -iprefix /scratch/UCL/applications/gcc/4.9.2/bin/../lib/gcc/x86_64-unknown-linux-gnu/4.9.2/ -mtune=corei7 -march=x86-64 -g -O2
REM COMMAND_LINE
REM seed 424429300 -638211161 201128015 -537996910 327494518 1194538638 1663600843 -151974333 -2081228224 -247312180 1716978977 371015118
REM
REM Se 3|2.1|7|7|9|40:41:32(qc=5)
REM Ag 3|2.2|7|7|9|40U:50:41:42(qc=5)
REM 
CELL 1.54180    6.25013    6.25013    6.25013   89.68873   89.68873   89.68873
LATT -1
SFAC Se Ag 
Se     1  0.0705489256594 -0.3876719558184  0.0918174412740 1.0
Se     1  0.0918174412740  0.0705489256594 -0.3876719558184 1.0
Se     1 -0.3876719558184  0.0918174412740  0.0705489256594 1.0
Se     1 -0.3644139474428 -0.3644139474428 -0.3644139474428 1.0
Ag     2 -0.3719695058917 -0.4005822698335  0.0715578517967 1.0
Ag     2  0.0715578517967 -0.3719695058917 -0.4005822698335 1.0
Ag     2 -0.4005822698335  0.0715578517967 -0.3719695058917 1.0
Ag     2  0.3570068603219 -0.1505611718014  0.3237917023714 1.0
Ag     2  0.3237917023714  0.3570068603219 -0.1505611718014 1.0
Ag     2 -0.1505611718014  0.3237917023714  0.3570068603219 1.0
Ag     2  0.3364267397897  0.3364267397897  0.3364267397897 1.0
Ag     2  0.0484154295746  0.0484154295746  0.0484154295746 1.0
END
