TITL 4Ag2Se_TETRA-200724-181755-cb6855 -0.0048 256.703604 -4.61324065E+004 0 0 12 (Pc) n - 1
REM
REM Run started: Fri, 24 Jul 2020 19:05:22 +0100 in /scratch/scratch/uccabz1/launch_tmp/launcher_2020-07-24-17-17-53-878797
REM CASTEP 19.11| from code version Version unavailable
REM Functional Perdew Burke Ernzerhof Relativity Koelling-Harmon Dispersion off
REM Cut-off 300.0000 eV Grid scale 1.7500 Gmax 15.5288 1/A FBSC none
REM MP grid 3 3 2 Offset 0.000 0.000 0.000 No. kpts 5 Spacing 0.07
REM Total runtime: 3152.22 s
REM Overall efficiency: 93.4167 %
REM
REM 4Ag2Se_TETRA.cell (4020362940262d3df87d4014b41eb05e)
REM
REM compiler GCC version 4.9.2
REM options -cpp -iprefix /scratch/UCL/applications/gcc/4.9.2/bin/../lib/gcc/x86_64-unknown-linux-gnu/4.9.2/ -mtune=corei7 -march=x86-64 -g -O2
REM COMMAND_LINE
REM seed -372847674 -131041230 -1538421262 -1505044528 -745183547 128594718 1965236369 -1632942270 994154052 442256416 -1383331186 -14403092
REM
REM Se 3|2.1|7|7|9|40:41:32(qc=5)
REM Ag 3|2.2|7|7|9|40U:50:41:42(qc=5)
REM 
CELL 1.54180    5.97905    5.96281    7.20028   90.00000   90.00000   90.05359
LATT -1
SFAC Se Ag 
Se     1 -0.0452671597118  0.1146130189494  0.2093378375754 1.0
Se     1  0.4547328402882  0.1146130189494 -0.2093378375754 1.0
Se     1  0.4865716811080 -0.4228756668246  0.2408645806771 1.0
Se     1 -0.0134283188920 -0.4228756668246 -0.2408645806771 1.0
Ag     2  0.4591861947715  0.1306944828653  0.1754299877617 1.0
Ag     2 -0.0408138052285  0.1306944828653 -0.1754299877617 1.0
Ag     2  0.3972265738139 -0.1461326095951 -0.4885606832946 1.0
Ag     2 -0.1027734261861 -0.1461326095951  0.4885606832946 1.0
Ag     2 -0.3449066779563 -0.2437533975171 -0.0531734478508 1.0
Ag     2  0.1550933220437 -0.2437533975171  0.0531734478508 1.0
Ag     2 -0.3644229120253  0.4023198721221 -0.4370597455190 1.0
Ag     2  0.1355770879747  0.4023198721221  0.4370597455190 1.0
END
