TITL 4Ag2Se_TETRA-200724-170255-235978 -0.0253 289.884301 -4.61305537E+004 0 0 12 (P63/mmc) n - 1
REM
REM Run started: Fri, 24 Jul 2020 17:24:18 +0100 in /scratch/scratch/uccabz1/launch_tmp/launcher_2020-07-24-16-02-53-705479
REM CASTEP 19.11| from code version Version unavailable
REM Functional Perdew Burke Ernzerhof Relativity Koelling-Harmon Dispersion off
REM Cut-off 300.0000 eV Grid scale 1.7500 Gmax 15.5288 1/A FBSC none
REM MP grid 4 2 2 Offset 0.000 0.000 0.000 No. kpts 2 Spacing 0.07
REM Total runtime: 1411.24 s
REM Overall efficiency: 73.8333 %
REM
REM 4Ag2Se_TETRA.cell (4020362940262d3df87d4014b41eb05e)
REM
REM compiler GCC version 4.9.2
REM options -cpp -iprefix /scratch/UCL/applications/gcc/4.9.2/bin/../lib/gcc/x86_64-unknown-linux-gnu/4.9.2/ -mtune=corei7 -march=x86-64 -g -O2
REM COMMAND_LINE
REM seed -104235053 -1433931571 756928667 941726464 -1416290862 -323641804 1024724270 -660560610 -487879158 -75463247 851904117 -361635512
REM
REM Se 3|2.1|7|7|9|40:41:32(qc=5)
REM Ag 3|2.2|7|7|9|40U:50:41:42(qc=5)
REM 
CELL 1.54180    4.55667    8.04412    7.90858   90.00000   89.99806   90.00000
LATT -1
SFAC Se Ag 
Se     1  0.3002613383615  0.2500000000000  0.3349784000000 1.0
Se     1  0.3002613383615 -0.2500000000000  0.3349784000000 1.0
Se     1 -0.1988866383615  0.2500000000000 -0.1650216000000 1.0
Se     1 -0.1988866383615 -0.2500000000000 -0.1650216000000 1.0
Ag     2 -0.1996455202692  0.1748256903149  0.4994990157291 1.0
Ag     2 -0.1996455202692 -0.1748256903149  0.4994990157291 1.0
Ag     2 -0.1996455202692 -0.3251743096851  0.1704577842709 1.0
Ag     2 -0.1996455202692  0.3251743096851  0.1704577842709 1.0
Ag     2  0.3010202202692  0.3251743096851 -0.3295422157291 1.0
Ag     2  0.3010202202692 -0.3251743096851 -0.3295422157291 1.0
Ag     2  0.3010202202692 -0.1748256903149 -0.0005009842709 1.0
Ag     2  0.3010202202692  0.1748256903149 -0.0005009842709 1.0
END
