TITL 4Ag2Se_TETRA-200724-172949-5e1375 0.0032 266.610544 -4.61325631E+004 0 0 12 (R3) n - 1
REM
REM Run started: Fri, 24 Jul 2020 18:15:50 +0100 in /scratch/scratch/uccabz1/launch_tmp/launcher_2020-07-24-16-29-47-959094
REM CASTEP 19.11| from code version Version unavailable
REM Functional Perdew Burke Ernzerhof Relativity Koelling-Harmon Dispersion off
REM Cut-off 300.0000 eV Grid scale 1.7500 Gmax 15.5288 1/A FBSC none
REM MP grid 3 3 3 Offset 0.000 0.000 0.000 No. kpts 6 Spacing 0.07
REM Total runtime: 3035.24 s
REM Overall efficiency: 93.1667 %
REM
REM 4Ag2Se_TETRA.cell (4020362940262d3df87d4014b41eb05e)
REM
REM compiler GCC version 4.9.2
REM options -cpp -iprefix /scratch/UCL/applications/gcc/4.9.2/bin/../lib/gcc/x86_64-unknown-linux-gnu/4.9.2/ -mtune=corei7 -march=x86-64 -g -O2
REM COMMAND_LINE
REM seed -695344298 1222103028 -1043986445 214211806 -775277700 -737597023 754416852 670763161 -558569193 -333808973 1214363432 1550765875
REM
REM Se 3|2.1|7|7|9|40:41:32(qc=5)
REM Ag 3|2.2|7|7|9|40U:50:41:42(qc=5)
REM 
CELL 1.54180    6.43616    6.43616    6.43616   89.86255   89.86255   89.86255
LATT -1
SFAC Se Ag 
Se     1  0.4188850061802  0.3540588828403 -0.1077095680800 1.0
Se     1  0.3540588828403 -0.1077095680800  0.4188850061802 1.0
Se     1 -0.1077095680800  0.4188850061802  0.3540588828403 1.0
Se     1 -0.0856870552445 -0.0856870552445 -0.0856870552445 1.0
Ag     2 -0.3451666491877  0.0790735469265  0.1981291227346 1.0
Ag     2  0.0790735469265  0.1981291227346 -0.3451666491877 1.0
Ag     2  0.1981291227346 -0.3451666491877  0.0790735469265 1.0
Ag     2  0.0631740083350 -0.3337599323847 -0.3826155577895 1.0
Ag     2 -0.3337599323847 -0.3826155577895  0.0631740083350 1.0
Ag     2 -0.3826155577895  0.0631740083350 -0.3337599323847 1.0
Ag     2 -0.4271912624135 -0.4271912624135 -0.4271912624135 1.0
Ag     2  0.1473790580832  0.1473790580832  0.1473790580832 1.0
END
