TITL 4Ag2Se_TETRA-200724-150053-36994a 0.0017 265.243414 -4.61326906E+004 0 0 12 (R3) n - 1
REM
REM Run started: Fri, 24 Jul 2020 15:47:00 +0100 in /scratch/scratch/uccabz1/launch_tmp/launcher_2020-07-24-14-00-51-981226
REM CASTEP 19.11| from code version Version unavailable
REM Functional Perdew Burke Ernzerhof Relativity Koelling-Harmon Dispersion off
REM Cut-off 300.0000 eV Grid scale 1.7500 Gmax 15.5288 1/A FBSC none
REM MP grid 3 3 3 Offset 0.000 0.000 0.000 No. kpts 6 Spacing 0.07
REM Total runtime: 3064.14 s
REM Overall efficiency: 92.8333 %
REM
REM 4Ag2Se_TETRA.cell (4020362940262d3df87d4014b41eb05e)
REM
REM compiler GCC version 4.9.2
REM options -cpp -iprefix /scratch/UCL/applications/gcc/4.9.2/bin/../lib/gcc/x86_64-unknown-linux-gnu/4.9.2/ -mtune=corei7 -march=x86-64 -g -O2
REM COMMAND_LINE
REM seed -1471670957 1561377394 -1220717310 -1434192 154810230 -686701881 -1737497525 -1117352787 1314364545 303986149 -1244741469 -790224689
REM
REM Se 3|2.1|7|7|9|40:41:32(qc=5)
REM Ag 3|2.2|7|7|9|40U:50:41:42(qc=5)
REM 
CELL 1.54180    6.42539    6.42539    6.42539   89.47887   89.47887   89.47887
LATT -1
SFAC Se Ag 
Se     1  0.0431545611766  0.0096163378648 -0.4564984458071 1.0
Se     1  0.0096163378648 -0.4564984458071  0.0431545611766 1.0
Se     1 -0.4564984458071  0.0431545611766  0.0096163378648 1.0
Se     1  0.4871265137070  0.4871265137070  0.4871265137070 1.0
Ag     2  0.2669435001868 -0.2163462329211  0.2601470998083 1.0
Ag     2 -0.2163462329211  0.2601470998083  0.2669435001868 1.0
Ag     2  0.2601470998083  0.2669435001868 -0.2163462329211 1.0
Ag     2  0.3490626585290 -0.3038380397100 -0.1667571191883 1.0
Ag     2 -0.3038380397100 -0.1667571191883  0.3490626585290 1.0
Ag     2 -0.1667571191883  0.3490626585290 -0.3038380397100 1.0
Ag     2  0.2433095686976  0.2433095686976  0.2433095686976 1.0
Ag     2 -0.2231734023436 -0.2231734023436 -0.2231734023436 1.0
END
