TITL 4Ag2Se-200724-053808-9f858a -0.0552 246.384783 -4.61317116E+004 0 0 12 (P3) n - 1
REM
REM Run started: Fri, 24 Jul 2020 06:40:42 +0100 in /rds/user/bz240/hpc-work/airss-fw/launch_tmp/launcher_2020-07-24-04-38-06-474122
REM CASTEP 19.11| from code version Version unavailable
REM Functional Perdew Burke Ernzerhof Relativity Koelling-Harmon Dispersion off
REM Cut-off 300.0000 eV Grid scale 1.7500 Gmax 15.5288 1/A FBSC none
REM MP grid 3 3 3 Offset 0.000 0.000 0.000 No. kpts 8 Spacing 0.07
REM Total runtime: 3784.92 s
REM Overall efficiency: 94 %
REM
REM 4Ag2Se.cell (6404a18c6b5dc90313b5c56acf317f23)
REM
REM compiler GCC version 4.8.5 20150623 (Red Hat 4.8.5-39)
REM options -cpp -mtune=generic -march=x86-64 -g -Og
REM COMMAND_LINE
REM seed 672160107 -684490927 1687169967 -1918501634 -2050096062 554303603 -1347875249 2082079998 296619389 495896578 -512179786 884041896
REM
REM Se 3|2.1|7|7|9|40:41:32(qc=5)
REM Ag 3|2.2|7|7|9|40U:50:41:42(qc=5)
REM 
CELL 1.54180    5.34955    7.29261    7.29261  120.00000   90.00000   90.00000
LATT -1
SFAC Se Ag 
Se     1 -0.2797633707069  0.3053257017261  0.2736044609697 1.0
Se     1 -0.2797633707069 -0.2736044609697  0.0317212407564 1.0
Se     1 -0.2797633707069 -0.0317212407564 -0.3053257017261 1.0
Se     1  0.2044338691943  0.3333333333333 -0.3333333333333 1.0
Ag     2  0.4416302551534 -0.0552028317022  0.3779546161962 1.0
Ag     2  0.4416302551534 -0.3779546161962 -0.4331574478984 1.0
Ag     2  0.4416302551534  0.4331574478984  0.0552028317022 1.0
Ag     2  0.2020452801663  0.0151457137477 -0.2232242824680 1.0
Ag     2  0.2020452801663  0.2232242824680  0.2383699962157 1.0
Ag     2  0.2020452801663 -0.2383699962157 -0.0151457137477 1.0
Ag     2 -0.2818516147048  0.3333333333333 -0.3333333333333 1.0
Ag     2 -0.0041932483279 -0.3333333333333  0.3333333333333 1.0
END
