TITL 4Ag2Se-200724-073503-b135a0 -0.0402 243.072498 -4.61324145E+004 0 0 12 (P2/c) n - 1
REM
REM Run started: Fri, 24 Jul 2020 09:25:57 +0100 in /rds/user/bz240/hpc-work/airss-fw/launch_tmp/launcher_2020-07-24-06-35-01-529838
REM CASTEP 19.11| from code version Version unavailable
REM Functional Perdew Burke Ernzerhof Relativity Koelling-Harmon Dispersion off
REM Cut-off 300.0000 eV Grid scale 1.7500 Gmax 15.5288 1/A FBSC none
REM MP grid 3 3 2 Offset 0.000 0.000 0.000 No. kpts 5 Spacing 0.07
REM Total runtime: 6774.36 s
REM Overall efficiency: 74.9167 %
REM
REM 4Ag2Se.cell (6404a18c6b5dc90313b5c56acf317f23)
REM
REM compiler GCC version 4.8.5 20150623 (Red Hat 4.8.5-39)
REM options -cpp -mtune=generic -march=x86-64 -g -Og
REM COMMAND_LINE
REM seed -1782133049 1482862531 453783032 -705816128 772850482 -658783609 1516413893 -2072383288 1270549724 -211506924 1397540160 -38682395
REM
REM Se 3|2.1|7|7|9|40:41:32(qc=5)
REM Ag 3|2.2|7|7|9|40U:50:41:42(qc=5)
REM 
CELL 1.54180    5.39240    6.31433    7.19352   90.00000   90.00000   97.07028
LATT -1
SFAC Se Ag 
Se     1 -0.2031328591695 -0.2944187351444  0.3985140419543 1.0
Se     1  0.2031328591695  0.2944187351444  0.3985140419543 1.0
Se     1 -0.2030132626125  0.2055861344781 -0.0381375099420 1.0
Se     1  0.2030132626125 -0.2055861344781 -0.0381375099420 1.0
Ag     2 -0.3114909937434 -0.3196577136690  0.0215312554135 1.0
Ag     2  0.3114909937434  0.3196577136690  0.0215312554135 1.0
Ag     2 -0.7357605360495 -0.4305870756051 -0.3269414090931 1.0
Ag     2  0.7357605360495  0.4305870756051 -0.3269414090931 1.0
Ag     2 -0.2642103822273 -0.0689753211155 -0.3134944954329 1.0
Ag     2  0.2642103822273  0.0689753211155 -0.3134944954329 1.0
Ag     2 -0.6884045190219 -0.1806370977171  0.3376065171006 1.0
Ag     2  0.6884045190219  0.1806370977171  0.3376065171006 1.0
END
