TITL 4Ag2Se-200724-080209-24ee46 0.0333 253.388819 -4.61309858E+004 0 0 12 (Fmmm) n - 1
REM
REM Run started: Fri, 24 Jul 2020 08:47:31 +0100 in /rds/user/bz240/hpc-work/airss-fw/launch_tmp/launcher_2020-07-24-07-02-08-012871
REM CASTEP 19.11| from code version Version unavailable
REM Functional Perdew Burke Ernzerhof Relativity Koelling-Harmon Dispersion off
REM Cut-off 300.0000 eV Grid scale 1.7500 Gmax 15.5288 1/A FBSC none
REM MP grid 3 3 3 Offset 0.000 0.000 0.000 No. kpts 8 Spacing 0.07
REM Total runtime: 2978.76 s
REM Overall efficiency: 95.3333 %
REM
REM 4Ag2Se.cell (6404a18c6b5dc90313b5c56acf317f23)
REM
REM compiler GCC version 4.8.5 20150623 (Red Hat 4.8.5-39)
REM options -cpp -mtune=generic -march=x86-64 -g -Og
REM COMMAND_LINE
REM seed 1318335103 -1320292400 1069744358 -1368531815 -907718762 798719126 1984849083 -1637906659 -1666903364 -715175181 -1279378224 1910394976
REM
REM Se 3|2.1|7|7|9|40:41:32(qc=5)
REM Ag 3|2.2|7|7|9|40U:50:41:42(qc=5)
REM 
CELL 1.54180    4.87832    7.63812    7.63812  117.08704   90.00000   90.00000
LATT -1
SFAC Se Ag 
Se     1  0.1861398000000  0.4081888204988  0.0922397998329 1.0
Se     1 -0.3138602000000 -0.4081888204988 -0.0922397998329 1.0
Se     1 -0.3138602000000 -0.0922397998329 -0.4081888204988 1.0
Se     1  0.1861398000000  0.0922397998329  0.4081888204988 1.0
Ag     2 -0.3138602000000 -0.6916584243580 -0.4689677211091 1.0
Ag     2  0.1861398000000  0.6916584243580  0.4689677211091 1.0
Ag     2  0.1861398000000 -0.5310322788909 -0.3083415756420 1.0
Ag     2 -0.3138602000000  0.5310322788909  0.3083415756420 1.0
Ag     2  0.1861398000000  0.0309327881202 -0.1917591662054 1.0
Ag     2 -0.3138602000000 -0.0309327881202  0.1917591662054 1.0
Ag     2 -0.3138602000000  0.1917591662054 -0.0309327881202 1.0
Ag     2  0.1861398000000 -0.1917591662054  0.0309327881202 1.0
END
