TITL 4Ag2Se-200724-073942-bacab6 -0.0056 233.371913 -4.61321880E+004 0 0 12 (P-1) n - 1
REM
REM Run started: Fri, 24 Jul 2020 08:59:49 +0100 in /rds/user/bz240/hpc-work/airss-fw/launch_tmp/launcher_2020-07-24-06-39-40-603054
REM CASTEP 19.11| from code version Version unavailable
REM Functional Perdew Burke Ernzerhof Relativity Koelling-Harmon Dispersion off
REM Cut-off 300.0000 eV Grid scale 1.7500 Gmax 15.5288 1/A FBSC none
REM MP grid 4 3 2 Offset 0.000 0.000 0.000 No. kpts 12 Spacing 0.07
REM Total runtime: 4988.58 s
REM Overall efficiency: 96.2857 %
REM
REM 4Ag2Se.cell (6404a18c6b5dc90313b5c56acf317f23)
REM
REM compiler GCC version 4.8.5 20150623 (Red Hat 4.8.5-39)
REM options -cpp -mtune=generic -march=x86-64 -g -Og
REM COMMAND_LINE
REM seed 115724252 -1195839469 -2125812591 205537843 -297411255 -425903782 -374569911 79157297 -646546256 645317319 1300138859 952743992
REM
REM Se 3|2.1|7|7|9|40:41:32(qc=5)
REM Ag 3|2.2|7|7|9|40U:50:41:42(qc=5)
REM 
CELL 1.54180    4.25610    5.62640    9.79038   95.33924   88.74362   90.05131
LATT -1
SFAC Se Ag 
Se     1 -0.2631428622236  0.1554560286680 -0.1102407933567 1.0
Se     1  0.2631428622236 -0.1554560286680  0.1102407933567 1.0
Se     1  0.2237564043497 -0.3412635706846 -0.2895974995890 1.0
Se     1 -0.2237564043497  0.3412635706846  0.2895974995890 1.0
Ag     2  0.2565191731787 -0.3873893154017  0.4166611653864 1.0
Ag     2 -0.2565191731787  0.3873893154017 -0.4166611653864 1.0
Ag     2  0.2568706592037  0.1119319253182  0.4213854252738 1.0
Ag     2 -0.2568706592037 -0.1119319253182 -0.4213854252738 1.0
Ag     2  0.2381471314423  0.3406901616524  0.0548712147863 1.0
Ag     2 -0.2381471314423 -0.3406901616524 -0.0548712147863 1.0
Ag     2 -0.2427318049910 -0.1632819448097  0.2740182423297 1.0
Ag     2  0.2427318049910  0.1632819448097 -0.2740182423297 1.0
END
