TITL 4Ag2Se_TETRA-200724-182319-fbb6f4 -0.0227 272.420292 -4.61306839E+004 0 0 12 (P21/m) n - 1
REM
REM Run started: Fri, 24 Jul 2020 19:23:35 +0100 in /scratch/scratch/uccabz1/launch_tmp/launcher_2020-07-24-17-23-18-285819
REM CASTEP 19.11| from code version Version unavailable
REM Functional Perdew Burke Ernzerhof Relativity Koelling-Harmon Dispersion off
REM Cut-off 300.0000 eV Grid scale 1.7500 Gmax 15.5288 1/A FBSC none
REM MP grid 3 4 2 Offset 0.000 0.000 0.000 No. kpts 6 Spacing 0.07
REM Total runtime: 4003.34 s
REM Overall efficiency: 94.4167 %
REM
REM 4Ag2Se_TETRA.cell (4020362940262d3df87d4014b41eb05e)
REM
REM compiler GCC version 4.9.2
REM options -cpp -iprefix /scratch/UCL/applications/gcc/4.9.2/bin/../lib/gcc/x86_64-unknown-linux-gnu/4.9.2/ -mtune=corei7 -march=x86-64 -g -O2
REM COMMAND_LINE
REM seed 633028705 -1663511817 138887665 -1137486298 1735947427 191168884 -95188658 -2105770209 228372375 -1620809677 464773668 219582766
REM
REM Se 3|2.1|7|7|9|40:41:32(qc=5)
REM Ag 3|2.2|7|7|9|40U:50:41:42(qc=5)
REM 
CELL 1.54180    5.76346    4.35533   10.88409   90.00000   90.00000   94.35723
LATT -1
SFAC Se Ag 
Se     1  0.0238945733325 -0.4688198396902 -0.1745659461797 1.0
Se     1  0.0238945733325 -0.4688198396902  0.1745659461797 1.0
Se     1 -0.4388653733325 -0.0053919603098 -0.3254340538203 1.0
Se     1 -0.4388653733325 -0.0053919603098  0.3254340538203 1.0
Ag     2  0.3206679639471  0.4673418412719  0.3710324806512 1.0
Ag     2  0.3206679639471  0.4673418412719 -0.3710324806512 1.0
Ag     2  0.2643612360529  0.0584463587281  0.1289675193488 1.0
Ag     2  0.2643612360529  0.0584463587281 -0.1289675193488 1.0
Ag     2 -0.4158684292570 -0.4131384285412 -0.1321974779720 1.0
Ag     2 -0.4158684292570 -0.4131384285412  0.1321974779720 1.0
Ag     2  0.0008976292570 -0.0610733714588  0.3678025220280 1.0
Ag     2  0.0008976292570 -0.0610733714588 -0.3678025220280 1.0
END
