TITL 4Ag2Se_TETRA-200724-140023-82e712 -0.0066 244.971367 -4.61310343E+004 0 0 12 (P2) n - 1
REM
REM Run started: Fri, 24 Jul 2020 14:57:15 +0100 in /scratch/scratch/uccabz1/launch_tmp/launcher_2020-07-24-13-00-21-584230
REM CASTEP 19.11| from code version Version unavailable
REM Functional Perdew Burke Ernzerhof Relativity Koelling-Harmon Dispersion off
REM Cut-off 300.0000 eV Grid scale 1.7500 Gmax 15.5288 1/A FBSC none
REM MP grid 4 4 1 Offset 0.000 0.000 0.000 No. kpts 4 Spacing 0.07
REM Total runtime: 3774.78 s
REM Overall efficiency: 93.9167 %
REM
REM 4Ag2Se_TETRA.cell (4020362940262d3df87d4014b41eb05e)
REM
REM compiler GCC version 4.9.2
REM options -cpp -iprefix /scratch/UCL/applications/gcc/4.9.2/bin/../lib/gcc/x86_64-unknown-linux-gnu/4.9.2/ -mtune=corei7 -march=x86-64 -g -O2
REM COMMAND_LINE
REM seed 502195596 -981118346 1349792536 -1856838140 -1656063811 -1267714097 374039507 290413044 -1527045136 -1872581243 180542131 2031587875
REM
REM Se 3|2.1|7|7|9|40:41:32(qc=5)
REM Ag 3|2.2|7|7|9|40U:50:41:42(qc=5)
REM 
CELL 1.54180    3.73533    4.48294   14.62929   90.04979   90.00000   90.00000
LATT -1
SFAC Se Ag 
Se     1 -0.4719748060297  0.2689686126686 -0.1951821567867 1.0
Se     1 -0.4719748060297 -0.2689686126686  0.1951821567867 1.0
Se     1  0.3850550797921 -0.2547357872713 -0.3959571326488 1.0
Se     1  0.3850550797921  0.2547357872713  0.3959571326488 1.0
Ag     2 -0.0050469137419  0.2509876902197 -0.4321684966521 1.0
Ag     2 -0.0050469137419 -0.2509876902197  0.4321684966521 1.0
Ag     2  0.0118513527786 -0.1019014466161 -0.2562776111847 1.0
Ag     2  0.0118513527786  0.1019014466161  0.2562776111847 1.0
Ag     2 -0.4729862751882 -0.2453377467399 -0.0936674996027 1.0
Ag     2 -0.4729862751882  0.2453377467399  0.0936674996027 1.0
Ag     2  0.0244148623891 -0.2492751146482  0.0603759908729 1.0
Ag     2  0.0244148623891  0.2492751146482 -0.0603759908729 1.0
END
