TITL 4Ag2Se-200724-081812-31c83e -0.0125 233.644057 -4.61315242E+004 0 0 12 (C2/m) n - 1
REM
REM Run started: Fri, 24 Jul 2020 09:16:52 +0100 in /scratch/scratch/uccabz1/launch_tmp/launcher_2020-07-24-07-18-11-014162
REM CASTEP 19.11| from code version Version unavailable
REM Functional Perdew Burke Ernzerhof Relativity Koelling-Harmon Dispersion off
REM Cut-off 300.0000 eV Grid scale 1.7500 Gmax 15.5288 1/A FBSC none
REM MP grid 4 2 3 Offset 0.000 0.000 0.000 No. kpts 12 Spacing 0.07
REM Total runtime: 4250.67 s
REM Overall efficiency: 96.3333 %
REM
REM 4Ag2Se.cell (6404a18c6b5dc90313b5c56acf317f23)
REM
REM compiler GCC version 4.9.2
REM options -cpp -iprefix /scratch/UCL/applications/gcc/4.9.2/bin/../lib/gcc/x86_64-unknown-linux-gnu/4.9.2/ -mtune=corei7 -march=x86-64 -g -O2
REM COMMAND_LINE
REM seed 410237248 898146367 -1070134588 1440593100 -2011117913 -1012218918 -495680731 244450888 205628293 -1317635419 1839315043 -2135878615
REM
REM Se 3|2.1|7|7|9|40:41:32(qc=5)
REM Ag 3|2.2|7|7|9|40U:50:41:42(qc=5)
REM 
CELL 1.54180    4.04673    9.96750    7.75091  126.82067   98.82790   99.63173
LATT -1
SFAC Se Ag 
Se     1  0.0864211577958  0.4216628557371 -0.4738726346150 1.0
Se     1  0.4397062075892  0.1044645096479 -0.4738726346150 1.0
Se     1  0.3864216194096 -0.2831530816684  0.1183380147973 1.0
Se     1 -0.2680836046123  0.4014910964657  0.1183380147973 1.0
Ag     2  0.4509330022299 -0.3710888074047  0.4624420868630 1.0
Ag     2  0.0115090846331 -0.1664691057323  0.4624420868630 1.0
Ag     2 -0.2985942927141  0.0189619103681 -0.1772940878815 1.0
Ag     2  0.1213002048326 -0.1962559982496 -0.1772940878815 1.0
Ag     2  0.3710176289163  0.1937666759070  0.1826880181756 1.0
Ag     2 -0.1883296107407 -0.0110786577313  0.1826880181756 1.0
Ag     2  0.1182973004759  0.2978044280895 -0.1783189973394 1.0
Ag     2 -0.2966162978153 -0.4761234254289 -0.1783189973394 1.0
END
