TITL 4Ag2Se-200724-034206-de2ad9 0.0483 234.460448 -4.61326906E+004 0 0 12 (P4/nmm) n - 1
REM
REM Run started: Fri, 24 Jul 2020 05:22:50 +0100 in /rds/user/bz240/hpc-work/airss-fw/launch_tmp/launcher_2020-07-24-02-42-04-538369
REM CASTEP 19.11| from code version Version unavailable
REM Functional Perdew Burke Ernzerhof Relativity Koelling-Harmon Dispersion off
REM Cut-off 300.0000 eV Grid scale 1.7500 Gmax 15.5288 1/A FBSC none
REM MP grid 4 4 2 Offset 0.000 0.000 0.000 No. kpts 8 Spacing 0.07
REM Total runtime: 6178.85 s
REM Overall efficiency: 95.2 %
REM
REM 4Ag2Se.cell (6404a18c6b5dc90313b5c56acf317f23)
REM
REM compiler GCC version 4.8.5 20150623 (Red Hat 4.8.5-39)
REM options -cpp -mtune=generic -march=x86-64 -g -Og
REM COMMAND_LINE
REM seed -2140982010 629101605 -1371929861 -1288610518 -2132165387 -1873175508 1134304121 -275164325 1296403545 924578683 -837822287 -154846035
REM
REM Se 3|2.1|7|7|9|40:41:32(qc=5)
REM Ag 3|2.2|7|7|9|40U:50:41:42(qc=5)
REM 
CELL 1.54180    4.16797    4.14751   13.56313   90.00000   90.00000   89.82976
LATT -1
SFAC Se Ag 
Se     1 -0.2479049759831  0.2506370948685  0.3570855088396 1.0
Se     1 -0.2520950240169  0.2493629051315 -0.1429144911604 1.0
Se     1  0.2479049759831 -0.2506370948685 -0.3570855088396 1.0
Se     1  0.2520950240169 -0.2493629051315  0.1429144911604 1.0
Ag     2 -0.2565590736158  0.2497800864983 -0.3435271389551 1.0
Ag     2 -0.2434409263842  0.2502199135017  0.1564728610449 1.0
Ag     2  0.2565590736158 -0.2497800864983  0.3435271389551 1.0
Ag     2  0.2434409263842 -0.2502199135017 -0.1564728610449 1.0
Ag     2 -0.2510421404418 -0.2502339207828  0.0001551350120 1.0
Ag     2 -0.2489578595582 -0.2497660792172 -0.4998448649880 1.0
Ag     2  0.2510421404418  0.2502339207828 -0.0001551350120 1.0
Ag     2  0.2489578595582  0.2497660792172  0.4998448649880 1.0
END
