TITL 4Ag2Se-200724-034504-3534de -0.0096 246.526885 -4.61323071E+004 0 0 12 (P2) n - 1
REM
REM Run started: Fri, 24 Jul 2020 04:28:24 +0100 in /rds/user/bz240/hpc-work/airss-fw/launch_tmp/launcher_2020-07-24-02-45-02-977420
REM CASTEP 19.11| from code version Version unavailable
REM Functional Perdew Burke Ernzerhof Relativity Koelling-Harmon Dispersion off
REM Cut-off 300.0000 eV Grid scale 1.7500 Gmax 15.5288 1/A FBSC none
REM MP grid 3 3 3 Offset 0.000 0.000 0.000 No. kpts 10 Spacing 0.07
REM Total runtime: 2905.93 s
REM Overall efficiency: 75.8333 %
REM
REM 4Ag2Se.cell (6404a18c6b5dc90313b5c56acf317f23)
REM
REM compiler GCC version 4.8.5 20150623 (Red Hat 4.8.5-39)
REM options -cpp -mtune=generic -march=x86-64 -g -Og
REM COMMAND_LINE
REM seed 1174844695 1230312840 453959071 -161590990 -2052398751 -948693436 -1634691958 -2139920529 -984797818 919204041 -1766865783 -1985234847
REM
REM Se 3|2.1|7|7|9|40:41:32(qc=5)
REM Ag 3|2.2|7|7|9|40U:50:41:42(qc=5)
REM 
CELL 1.54180    5.48743    6.42143    7.06560   90.00000   98.03574   90.00000
LATT -1
SFAC Se Ag 
Se     1  0.1574030408892  0.1460821422017 -0.2073332075010 1.0
Se     1 -0.1574030408892  0.1460821422017  0.2073332075010 1.0
Se     1  0.2516522397425 -0.3362448479332  0.2329863784119 1.0
Se     1 -0.2516522397425 -0.3362448479332 -0.2329863784119 1.0
Ag     2 -0.3444445958119  0.0851227848340 -0.1730355324056 1.0
Ag     2  0.3444445958119  0.0851227848340  0.1730355324056 1.0
Ag     2 -0.2620728874422 -0.1271866114309  0.4496034636817 1.0
Ag     2  0.2620728874422 -0.1271866114309 -0.4496034636817 1.0
Ag     2  0.2721036486314 -0.4347227751020 -0.1445713853800 1.0
Ag     2 -0.2721036486314 -0.4347227751020  0.1445713853800 1.0
Ag     2 -0.2485347083832  0.3635596074304 -0.4860878755645 1.0
Ag     2  0.2485347083832  0.3635596074304  0.4860878755645 1.0
END
