TITL 4Ag2Se-200724-055040-5beeed -0.0471 232.391488 -4.61318343E+004 0 0 12 (C2/c) n - 1
REM
REM Run started: Fri, 24 Jul 2020 08:26:46 +0100 in /scratch/scratch/uccabz1/launch_tmp/launcher_2020-07-24-04-50-38-916688
REM CASTEP 19.11| from code version Version unavailable
REM Functional Perdew Burke Ernzerhof Relativity Koelling-Harmon Dispersion off
REM Cut-off 300.0000 eV Grid scale 1.7500 Gmax 15.5288 1/A FBSC none
REM MP grid 5 4 2 Offset 0.000 0.000 0.000 No. kpts 20 Spacing 0.07
REM Total runtime: 9562.12 s
REM Overall efficiency: 95.8889 %
REM
REM 4Ag2Se.cell (6404a18c6b5dc90313b5c56acf317f23)
REM
REM compiler GCC version 4.9.2
REM options -cpp -iprefix /scratch/UCL/applications/gcc/4.9.2/bin/../lib/gcc/x86_64-unknown-linux-gnu/4.9.2/ -mtune=corei7 -march=x86-64 -g -O2
REM COMMAND_LINE
REM seed -822833037 690104765 585239909 481416365 562086921 142983561 1571099807 973838093 1237437926 -695735988 -367105581 -18800003
REM
REM Se 3|2.1|7|7|9|40:41:32(qc=5)
REM Ag 3|2.2|7|7|9|40U:50:41:42(qc=5)
REM 
CELL 1.54180    3.83078    4.90098   13.84235   77.39202   90.00000  113.00543
LATT -1
SFAC Se Ag 
Se     1 -0.2192984420305  0.2499227712793  0.1260272019507 1.0
Se     1  0.5307786866902  0.7500770287207  0.3739727980493 1.0
Se     1  0.2192984420305 -0.2499229712793 -0.1260272019507 1.0
Se     1 -0.5307786866902 -0.7500772287207 -0.3739727980493 1.0
Ag     2  0.3894446364094  0.2491556104189 -0.0451551616942 1.0
Ag     2 -0.8597110740095 -0.2491558104189 -0.4548448383058 1.0
Ag     2 -0.3894446364094 -0.2491558104189  0.0451551616942 1.0
Ag     2  0.8597110740095  0.2491556104189  0.4548448383058 1.0
Ag     2 -0.3439126138509 -0.2565008132265 -0.2912337459707 1.0
Ag     2 -0.0874119006244 -0.7434993867735 -0.2087662540293 1.0
Ag     2  0.3439126138509  0.2565006132265  0.2912337459707 1.0
Ag     2  0.0874119006244  0.7434991867735  0.2087662540293 1.0
END
