TITL 4Ag2Se_TETRA-200724-152203-bf35eb -0.0026 247.114504 -4.61312304E+004 0 0 12 (Pc) n - 1
REM
REM Run started: Fri, 24 Jul 2020 16:13:01 +0100 in /scratch/scratch/uccabz1/launch_tmp/launcher_2020-07-24-14-22-01-700772
REM CASTEP 19.11| from code version Version unavailable
REM Functional Perdew Burke Ernzerhof Relativity Koelling-Harmon Dispersion off
REM Cut-off 300.0000 eV Grid scale 1.7500 Gmax 15.5288 1/A FBSC none
REM MP grid 3 4 2 Offset 0.000 0.000 0.000 No. kpts 6 Spacing 0.07
REM Total runtime: 3375.9 s
REM Overall efficiency: 93.3333 %
REM
REM 4Ag2Se_TETRA.cell (4020362940262d3df87d4014b41eb05e)
REM
REM compiler GCC version 4.9.2
REM options -cpp -iprefix /scratch/UCL/applications/gcc/4.9.2/bin/../lib/gcc/x86_64-unknown-linux-gnu/4.9.2/ -mtune=corei7 -march=x86-64 -g -O2
REM COMMAND_LINE
REM seed 1315326694 -1176297297 232461753 -140634251 -395427329 -220234535 928159538 -1961790185 459590203 1095143810 -1110973023 1629024180
REM
REM Se 3|2.1|7|7|9|40:41:32(qc=5)
REM Ag 3|2.2|7|7|9|40U:50:41:42(qc=5)
REM 
CELL 1.54180    4.76490    4.55093   11.39739   90.00000   90.00000   90.96497
LATT -1
SFAC Se Ag 
Se     1 -0.4482852719272  0.0171119018141  0.1265294233209 1.0
Se     1  0.0517147280728  0.0171119018141 -0.1265294233209 1.0
Se     1  0.0540565294916  0.3993393466672  0.3740708429244 1.0
Se     1 -0.4459434705084  0.3993393466672 -0.3740708429244 1.0
Ag     2  0.4593722142025 -0.0261241083268  0.4365768894009 1.0
Ag     2 -0.0406277857975 -0.0261241083268 -0.4365768894009 1.0
Ag     2  0.2728560014432 -0.4713709720179  0.0524411881133 1.0
Ag     2 -0.2271439985568 -0.4713709720179 -0.0524411881133 1.0
Ag     2 -0.4618349634771 -0.0992554795960 -0.2356912281378 1.0
Ag     2  0.0381650365229 -0.0992554795960  0.2356912281378 1.0
Ag     2 -0.4442970097331 -0.4873149885407  0.2728661219681 1.0
Ag     2  0.0557029902669 -0.4873149885407 -0.2728661219681 1.0
END
