TITL 4Ag2Se-200724-055216-63b00d 0.0997 241.259140 -4.61325204E+004 0 0 12 (Pbcm) n - 1
REM
REM Run started: Fri, 24 Jul 2020 07:55:02 +0100 in /scratch/scratch/uccabz1/launch_tmp/launcher_2020-07-24-04-52-14-667857
REM CASTEP 19.11| from code version Version unavailable
REM Functional Perdew Burke Ernzerhof Relativity Koelling-Harmon Dispersion off
REM Cut-off 300.0000 eV Grid scale 1.7500 Gmax 15.5288 1/A FBSC none
REM MP grid 3 3 2 Offset 0.000 0.000 0.000 No. kpts 4 Spacing 0.07
REM Total runtime: 8150.91 s
REM Overall efficiency: 95.6154 %
REM
REM 4Ag2Se.cell (6404a18c6b5dc90313b5c56acf317f23)
REM
REM compiler GCC version 4.9.2
REM options -cpp -iprefix /scratch/UCL/applications/gcc/4.9.2/bin/../lib/gcc/x86_64-unknown-linux-gnu/4.9.2/ -mtune=corei7 -march=x86-64 -g -O2
REM COMMAND_LINE
REM seed -2019946554 -1680452529 870942058 1334666310 1077903489 600943811 546455423 -503800878 -294069741 -589699252 -913269777 1408020456
REM
REM Se 3|2.1|7|7|9|40:41:32(qc=5)
REM Ag 3|2.2|7|7|9|40U:50:41:42(qc=5)
REM 
CELL 1.54180    4.85724    6.98455    7.11141   90.00000   90.00000   90.00000
LATT -1
SFAC Se Ag 
Se     1 -0.2500000000000 -0.2946117393017  0.2839826616690 1.0
Se     1  0.2500000000000  0.2946117393017  0.2839826616690 1.0
Se     1 -0.2500000000000  0.2053882606983 -0.2839826616690 1.0
Se     1  0.2500000000000 -0.2053882606983 -0.2839826616690 1.0
Ag     2  0.2500000000000  0.1174728905342 -0.0469759064857 1.0
Ag     2 -0.2500000000000 -0.1174728905342 -0.0469759064857 1.0
Ag     2  0.2500000000000 -0.3825271094658  0.0469759064857 1.0
Ag     2 -0.2500000000000  0.3825271094658  0.0469759064857 1.0
Ag     2 -0.2500000000000  0.0976671726096  0.3390619422612 1.0
Ag     2  0.2500000000000 -0.0976671726096  0.3390619422612 1.0
Ag     2 -0.2500000000000 -0.4023328273904 -0.3390619422612 1.0
Ag     2  0.2500000000000  0.4023328273904 -0.3390619422612 1.0
END
