TITL 4Ag2Se_TETRA-200724-142504-fdc74d -0.0111 263.114184 -4.61306992E+004 0 0 12 (P4/mbm) n - 1
REM
REM Run started: Fri, 24 Jul 2020 14:44:33 +0100 in /scratch/scratch/uccabz1/launch_tmp/launcher_2020-07-24-13-25-02-418452
REM CASTEP 19.11| from code version Version unavailable
REM Functional Perdew Burke Ernzerhof Relativity Koelling-Harmon Dispersion off
REM Cut-off 300.0000 eV Grid scale 1.7500 Gmax 15.5288 1/A FBSC none
REM MP grid 2 4 2 Offset 0.000 0.000 0.000 No. kpts 2 Spacing 0.07
REM Total runtime: 1285.09 s
REM Overall efficiency: 71.5 %
REM
REM 4Ag2Se_TETRA.cell (4020362940262d3df87d4014b41eb05e)
REM
REM compiler GCC version 4.9.2
REM options -cpp -iprefix /scratch/UCL/applications/gcc/4.9.2/bin/../lib/gcc/x86_64-unknown-linux-gnu/4.9.2/ -mtune=corei7 -march=x86-64 -g -O2
REM COMMAND_LINE
REM seed 473163741 1183742239 1156788531 -1460575865 1440253584 -1888651050 920477412 -123653030 383917927 -834814456 -1920072061 1659090856
REM
REM Se 3|2.1|7|7|9|40:41:32(qc=5)
REM Ag 3|2.2|7|7|9|40U:50:41:42(qc=5)
REM 
CELL 1.54180    7.96521    4.14715    7.96521   90.00000   90.00000   90.00000
LATT -1
SFAC Se Ag 
Se     1  0.2112862060697 -0.2853416000000 -0.2889029428774 1.0
Se     1 -0.2112862060697 -0.2853416000000  0.2889029428774 1.0
Se     1 -0.2889029428774 -0.2853416000000 -0.2112862060697 1.0
Se     1  0.2889029428774 -0.2853416000000  0.2112862060697 1.0
Ag     2  0.0065449532268  0.2146584000000  0.2482038308766 1.0
Ag     2 -0.0065449532268  0.2146584000000 -0.2482038308766 1.0
Ag     2  0.2482038308766  0.2146584000000 -0.0065449532268 1.0
Ag     2 -0.2482038308766  0.2146584000000  0.0065449532268 1.0
Ag     2  0.2517475815721  0.2146584000000  0.4926926737694 1.0
Ag     2 -0.2517475815721  0.2146584000000 -0.4926926737694 1.0
Ag     2  0.4926926737694  0.2146584000000 -0.2517475815721 1.0
Ag     2 -0.4926926737694  0.2146584000000  0.2517475815721 1.0
END
