TITL 4Ag2Se_TETRA-200724-142946-ce7773 -0.0439 279.611181 -4.61304878E+004 0 0 12 (Pc) n - 1
REM
REM Run started: Fri, 24 Jul 2020 15:34:24 +0100 in /scratch/scratch/uccabz1/launch_tmp/launcher_2020-07-24-13-29-44-141474
REM CASTEP 19.11| from code version Version unavailable
REM Functional Perdew Burke Ernzerhof Relativity Koelling-Harmon Dispersion off
REM Cut-off 300.0000 eV Grid scale 1.7500 Gmax 15.5288 1/A FBSC none
REM MP grid 4 2 2 Offset 0.000 0.000 0.000 No. kpts 4 Spacing 0.07
REM Total runtime: 4303.24 s
REM Overall efficiency: 94.1667 %
REM
REM 4Ag2Se_TETRA.cell (4020362940262d3df87d4014b41eb05e)
REM
REM compiler GCC version 4.9.2
REM options -cpp -iprefix /scratch/UCL/applications/gcc/4.9.2/bin/../lib/gcc/x86_64-unknown-linux-gnu/4.9.2/ -mtune=corei7 -march=x86-64 -g -O2
REM COMMAND_LINE
REM seed 2140843246 -1346505684 -1185611347 225505621 660263500 -1127176966 -679077641 796814235 -1112878615 -530917765 1654699282 1718993720
REM
REM Se 3|2.1|7|7|9|40:41:32(qc=5)
REM Ag 3|2.2|7|7|9|40U:50:41:42(qc=5)
REM 
CELL 1.54180    4.19324    7.26142    9.18535   91.30590   90.00000   90.00000
LATT -1
SFAC Se Ag 
Se     1  0.2499110975654  0.0736222736350  0.1641361168657 1.0
Se     1 -0.2499110975654 -0.4263777263650  0.1641361168657 1.0
Se     1 -0.2521053738773  0.2441022571962 -0.4023896512433 1.0
Se     1  0.2521053738773 -0.2558977428038 -0.4023896512433 1.0
Ag     2  0.2472488435520  0.4058775875374  0.4658039206092 1.0
Ag     2 -0.2472488435520 -0.0941224124626  0.4658039206092 1.0
Ag     2  0.2487074434026 -0.2651789564012  0.3133361852606 1.0
Ag     2 -0.2487074434026  0.2348210435988  0.3133361852606 1.0
Ag     2  0.0507691631938 -0.4618135923766 -0.1995774677506 1.0
Ag     2 -0.0507691631938  0.0381864076234 -0.1995774677506 1.0
Ag     2  0.2503430726020 -0.2477762695908  0.0249089962584 1.0
Ag     2 -0.2503430726020  0.2522237304092  0.0249089962584 1.0
END
