TITL 4Ag2Se_TETRA-200724-174301-65b8cb -0.0275 253.881499 -4.61312465E+004 0 0 12 (P-1) n - 1
REM
REM Run started: Fri, 24 Jul 2020 18:36:26 +0100 in /scratch/scratch/uccabz1/launch_tmp/launcher_2020-07-24-16-42-59-431407
REM CASTEP 19.11| from code version Version unavailable
REM Functional Perdew Burke Ernzerhof Relativity Koelling-Harmon Dispersion off
REM Cut-off 300.0000 eV Grid scale 1.7500 Gmax 15.5288 1/A FBSC none
REM MP grid 3 3 2 Offset 0.000 0.000 0.000 No. kpts 9 Spacing 0.07
REM Total runtime: 3536.1 s
REM Overall efficiency: 75.25 %
REM
REM 4Ag2Se_TETRA.cell (4020362940262d3df87d4014b41eb05e)
REM
REM compiler GCC version 4.9.2
REM options -cpp -iprefix /scratch/UCL/applications/gcc/4.9.2/bin/../lib/gcc/x86_64-unknown-linux-gnu/4.9.2/ -mtune=corei7 -march=x86-64 -g -O2
REM COMMAND_LINE
REM seed 1377040127 959202054 1858188783 -791344133 -151638699 -1152567443 448843368 -85409648 1614992882 2022741707 1048099216 -77026566
REM
REM Se 3|2.1|7|7|9|40:41:32(qc=5)
REM Ag 3|2.2|7|7|9|40U:50:41:42(qc=5)
REM 
CELL 1.54180    5.66155    5.58290    8.03312   89.19487   89.78294   89.83223
LATT -1
SFAC Se Ag 
Se     1 -0.2249246510563  0.2470557338495  0.0879275665851 1.0
Se     1  0.2249246510563 -0.2470557338495 -0.0879275665851 1.0
Se     1 -0.2449277096433 -0.3005154901884 -0.4194805836626 1.0
Se     1  0.2449277096433  0.3005154901884  0.4194805836626 1.0
Ag     2 -0.3272363239362 -0.0631298793025 -0.1491611329856 1.0
Ag     2  0.3272363239362  0.0631298793025  0.1491611329856 1.0
Ag     2 -0.2117246542068  0.0878044208751  0.4015843133408 1.0
Ag     2  0.2117246542068 -0.0878044208751 -0.4015843133408 1.0
Ag     2  0.0468495884215  0.2934898394853 -0.1771805131403 1.0
Ag     2 -0.0468495884215 -0.2934898394853  0.1771805131403 1.0
Ag     2 -0.4661498123209  0.4227820610730 -0.1992812155601 1.0
Ag     2  0.4661498123209 -0.4227820610730  0.1992812155601 1.0
END
