TITL 4Ag2Se_TETRA-200724-123538-34eeae 0.0228 259.586143 -4.61322801E+004 0 0 12 (R3) n - 1
REM
REM Run started: Fri, 24 Jul 2020 14:01:53 +0100 in /scratch/scratch/uccabz1/launch_tmp/launcher_2020-07-24-12-32-28-683115
REM CASTEP 19.11| from code version Version unavailable
REM Functional Perdew Burke Ernzerhof Relativity Koelling-Harmon Dispersion off
REM Cut-off 300.0000 eV Grid scale 1.7500 Gmax 15.5288 1/A FBSC none
REM MP grid 3 3 3 Offset 0.000 0.000 0.000 No. kpts 6 Spacing 0.07
REM Total runtime: 2049.35 s
REM Overall efficiency: 91.8889 %
REM
REM
REM
REM compiler GCC version 4.8.5 20150623 (Red Hat 4.8.5-39)
REM options -cpp -mtune=generic -march=x86-64 -g -Og
REM COMMAND_LINE
REM seed 704817095 -354180936 1138697079 -444386072 -940277805 -1546427448 1463292984 1893420941 266674185 -1873046670 -949192806 -1210480855
REM
REM Se 3|2.1|7|7|9|40:41:32(qc=5)
REM Ag 3|2.2|7|7|9|40U:50:41:42(qc=5)
REM 
CELL 1.54180    6.37918    6.37918    6.37918   90.25865   90.25865   90.25865
LATT -1
SFAC Se Ag 
Se     1  0.0758166665734  0.1349662467606 -0.4246959816814 1.0
Se     1 -0.4246959816814  0.0758166665734  0.1349662467606 1.0
Se     1  0.1349662467606 -0.4246959816814  0.0758166665734 1.0
Se     1 -0.3805862205235 -0.3805862205235 -0.3805862205235 1.0
Ag     2  0.0732265820941 -0.4360757984477 -0.3757015223904 1.0
Ag     2 -0.3757015223904  0.0732265820941 -0.4360757984477 1.0
Ag     2 -0.4360757984477 -0.3757015223904  0.0732265820941 1.0
Ag     2 -0.1800933227318  0.3159922007059 -0.1044884782087 1.0
Ag     2 -0.1044884782087 -0.1800933227318  0.3159922007059 1.0
Ag     2  0.3159922007059 -0.1044884782087 -0.1800933227318 1.0
Ag     2 -0.1168709318908 -0.1168709318908 -0.1168709318908 1.0
Ag     2  0.3697145597402  0.3697145597402  0.3697145597402 1.0
END
