TITL 4Ag2Se_TETRA-200724-160826-f1bd32 0.3011 244.306079 -4.61308566E+004 0 0 12 (Cmc21) n - 1
REM
REM Run started: Fri, 24 Jul 2020 17:36:19 +0100 in /scratch/scratch/uccabz1/launch_tmp/launcher_2020-07-24-15-08-24-668843
REM CASTEP 19.11| from code version Version unavailable
REM Functional Perdew Burke Ernzerhof Relativity Koelling-Harmon Dispersion off
REM Cut-off 300.0000 eV Grid scale 1.7500 Gmax 15.5288 1/A FBSC none
REM MP grid 3 3 3 Offset 0.000 0.000 0.000 No. kpts 8 Spacing 0.07
REM Total runtime: 5814.98 s
REM Overall efficiency: 95.5833 %
REM
REM 4Ag2Se_TETRA.cell (4020362940262d3df87d4014b41eb05e)
REM
REM compiler GCC version 4.9.2
REM options -cpp -iprefix /scratch/UCL/applications/gcc/4.9.2/bin/../lib/gcc/x86_64-unknown-linux-gnu/4.9.2/ -mtune=corei7 -march=x86-64 -g -O2
REM COMMAND_LINE
REM seed -305487630 -866882410 1537954433 449645375 -851140610 1586460187 404797895 1531965562 89125930 1335096060 -895961317 2015406952
REM
REM Se 3|2.1|7|7|9|40:41:32(qc=5)
REM Ag 3|2.2|7|7|9|40U:50:41:42(qc=5)
REM 
CELL 1.54180    6.87572    5.67475    6.87572   90.00000  114.40471   90.00000
LATT -1
SFAC Se Ag 
Se     1 -0.4455800891073 -0.3124723974726 -0.1289127193854 1.0
Se     1 -0.1289127193854 -0.3124723974726 -0.4455800891073 1.0
Se     1 -0.4669617108927  0.1875276025274  0.2163709193854 1.0
Se     1  0.2163709193854  0.1875276025274 -0.4669617108927 1.0
Ag     2  0.1513827743312 -0.0819072254694 -0.0895003905587 1.0
Ag     2 -0.0895003905587 -0.0819072254694  0.1513827743312 1.0
Ag     2  0.1769585905587  0.4180927745306 -0.0639245743312 1.0
Ag     2 -0.0639245743312  0.4180927745306  0.1769585905587 1.0
Ag     2 -0.1507775081317  0.1980496729420 -0.3902453266108 1.0
Ag     2 -0.3902453266108  0.1980496729420 -0.1507775081317 1.0
Ag     2  0.2382357081317 -0.3019503270580  0.4777035266108 1.0
Ag     2  0.4777035266108 -0.3019503270580  0.2382357081317 1.0
END
