TITL 4Ag2Se_TETRA-200724-145734-39409c -0.0435 264.769506 -4.61310621E+004 0 0 12 (P4/m) n - 1
REM
REM Run started: Fri, 24 Jul 2020 15:18:53 +0100 in /scratch/scratch/uccabz1/launch_tmp/launcher_2020-07-24-13-57-31-407879
REM CASTEP 19.11| from code version Version unavailable
REM Functional Perdew Burke Ernzerhof Relativity Koelling-Harmon Dispersion off
REM Cut-off 300.0000 eV Grid scale 1.7500 Gmax 15.5288 1/A FBSC none
REM MP grid 4 2 2 Offset 0.000 0.000 0.000 No. kpts 2 Spacing 0.07
REM Total runtime: 1385.4 s
REM Overall efficiency: 70.75 %
REM
REM 4Ag2Se_TETRA.cell (4020362940262d3df87d4014b41eb05e)
REM
REM compiler GCC version 4.9.2
REM options -cpp -iprefix /scratch/UCL/applications/gcc/4.9.2/bin/../lib/gcc/x86_64-unknown-linux-gnu/4.9.2/ -mtune=corei7 -march=x86-64 -g -O2
REM COMMAND_LINE
REM seed 780097262 -1126021321 889567677 -1255819817 -296233786 -706097768 -781094888 -1514922097 -1150315553 1277053914 -1104373422 -1445995475
REM
REM Se 3|2.1|7|7|9|40:41:32(qc=5)
REM Ag 3|2.2|7|7|9|40U:50:41:42(qc=5)
REM 
CELL 1.54180    3.91224    8.22662    8.22662   90.00000   90.00000   90.00000
LATT -1
SFAC Se Ag 
Se     1  0.3183375000000  0.2842934475831  0.2440299778979 1.0
Se     1  0.3183375000000 -0.2842934475831 -0.2440299778979 1.0
Se     1  0.3183375000000  0.2440299778979 -0.2842934475831 1.0
Se     1  0.3183375000000 -0.2440299778979  0.2842934475831 1.0
Ag     2 -0.1816625000000 -0.2479548518576 -0.4729348520740 1.0
Ag     2 -0.1816625000000  0.2479548518576  0.4729348520740 1.0
Ag     2 -0.1816625000000 -0.4729348520740  0.2479548518576 1.0
Ag     2 -0.1816625000000  0.4729348520740 -0.2479548518576 1.0
Ag     2 -0.1816625000000 -0.0211088527391  0.2474572930633 1.0
Ag     2 -0.1816625000000  0.0211088527391 -0.2474572930633 1.0
Ag     2 -0.1816625000000  0.2474572930633  0.0211088527391 1.0
Ag     2 -0.1816625000000 -0.2474572930633 -0.0211088527391 1.0
END
