TITL 4Ag2Se_TETRA-200724-172952-0d44c7 -0.0517 248.050926 -4.61311901E+004 0 0 12 (Ccc2) n - 1
REM
REM Run started: Fri, 24 Jul 2020 18:53:10 +0100 in /scratch/scratch/uccabz1/launch_tmp/launcher_2020-07-24-16-29-50-510411
REM CASTEP 19.11| from code version Version unavailable
REM Functional Perdew Burke Ernzerhof Relativity Koelling-Harmon Dispersion off
REM Cut-off 300.0000 eV Grid scale 1.7500 Gmax 15.5288 1/A FBSC none
REM MP grid 3 3 3 Offset 0.000 0.000 0.000 No. kpts 8 Spacing 0.07
REM Total runtime: 5525.45 s
REM Overall efficiency: 94.8333 %
REM
REM 4Ag2Se_TETRA.cell (4020362940262d3df87d4014b41eb05e)
REM
REM compiler GCC version 4.9.2
REM options -cpp -iprefix /scratch/UCL/applications/gcc/4.9.2/bin/../lib/gcc/x86_64-unknown-linux-gnu/4.9.2/ -mtune=corei7 -march=x86-64 -g -O2
REM COMMAND_LINE
REM seed 1268003085 -553790722 1926879505 164481813 826707002 -1016816287 -910929225 1725344870 1730438808 -31011253 675022943 -1831181873
REM
REM Se 3|2.1|7|7|9|40:41:32(qc=5)
REM Ag 3|2.2|7|7|9|40U:50:41:42(qc=5)
REM 
CELL 1.54180    6.14730    6.14730    6.92382   90.00000   90.00000  108.55152
LATT -1
SFAC Se Ag 
Se     1 -0.3250427262238 -0.1818851847975  0.1246262269916 1.0
Se     1  0.3250427262238  0.1818851847975  0.1246262269916 1.0
Se     1  0.1818851847975  0.3250427262238 -0.3753737730084 1.0
Se     1 -0.1818851847975 -0.3250427262238 -0.3753737730084 1.0
Ag     2  0.0777691579937 -0.2345186810914  0.2348813504672 1.0
Ag     2 -0.0777691579937  0.2345186810914  0.2348813504672 1.0
Ag     2  0.2345186810914 -0.0777691579937 -0.2651186495328 1.0
Ag     2 -0.2345186810914  0.0777691579937 -0.2651186495328 1.0
Ag     2 -0.4601430209030  0.2633280068755  0.4519422225412 1.0
Ag     2  0.4601430209030 -0.2633280068755  0.4519422225412 1.0
Ag     2 -0.2633280068755  0.4601430209030 -0.0480577774588 1.0
Ag     2  0.2633280068755 -0.4601430209030 -0.0480577774588 1.0
END
