TITL 4Ag2Se_TETRA-200724-172311-f2930f -0.0201 251.961571 -4.61304525E+004 0 0 12 (P-42m) n - 1
REM
REM Run started: Fri, 24 Jul 2020 18:20:04 +0100 in /scratch/scratch/uccabz1/launch_tmp/launcher_2020-07-24-16-23-09-244234
REM CASTEP 19.11| from code version Version unavailable
REM Functional Perdew Burke Ernzerhof Relativity Koelling-Harmon Dispersion off
REM Cut-off 300.0000 eV Grid scale 1.7500 Gmax 15.5288 1/A FBSC none
REM MP grid 3 3 2 Offset 0.000 0.000 0.000 No. kpts 4 Spacing 0.07
REM Total runtime: 3821.59 s
REM Overall efficiency: 93.8333 %
REM
REM 4Ag2Se_TETRA.cell (4020362940262d3df87d4014b41eb05e)
REM
REM compiler GCC version 4.9.2
REM options -cpp -iprefix /scratch/UCL/applications/gcc/4.9.2/bin/../lib/gcc/x86_64-unknown-linux-gnu/4.9.2/ -mtune=corei7 -march=x86-64 -g -O2
REM COMMAND_LINE
REM seed -1935401610 -2077465562 1447860566 -701408272 1452600202 -1926930656 -368557735 969089574 -963355892 -608947390 24949567 1123870936
REM
REM Se 3|2.1|7|7|9|40:41:32(qc=5)
REM Ag 3|2.2|7|7|9|40U:50:41:42(qc=5)
REM 
CELL 1.54180    5.48643    5.48644    8.37054   90.00000   90.00000   90.00000
LATT -1
SFAC Se Ag 
Se     1  0.2447395754140 -0.2468176495645 -0.3343601697519 1.0
Se     1  0.2447395754140  0.2468176495645  0.3343601697519 1.0
Se     1 -0.2447395754140  0.2468176495645 -0.3343601697519 1.0
Se     1 -0.2447395754140 -0.2468176495645  0.3343601697519 1.0
Ag     2  0.2558015949278 -0.2527353989616  0.3381404394607 1.0
Ag     2  0.2558015949278  0.2527353989616 -0.3381404394607 1.0
Ag     2 -0.2558015949278  0.2527353989616  0.3381404394607 1.0
Ag     2 -0.2558015949278 -0.2527353989616 -0.3381404394607 1.0
Ag     2 -0.2502032423800 -0.2501556410659  0.0310397961608 1.0
Ag     2 -0.2502032423800  0.2501556410659 -0.0310397961608 1.0
Ag     2  0.2502032423800  0.2501556410659  0.0310397961608 1.0
Ag     2  0.2502032423800 -0.2501556410659 -0.0310397961608 1.0
END
