TITL 4Ag2Se-200724-064513-c4a94f 0.0323 254.582899 -4.61308464E+004 0 0 12 (R3) n - 1
REM
REM Run started: Fri, 24 Jul 2020 07:44:34 +0100 in /rds/user/bz240/hpc-work/airss-fw/launch_tmp/launcher_2020-07-24-05-45-11-409781
REM CASTEP 19.11| from code version Version unavailable
REM Functional Perdew Burke Ernzerhof Relativity Koelling-Harmon Dispersion off
REM Cut-off 300.0000 eV Grid scale 1.7500 Gmax 15.5288 1/A FBSC none
REM MP grid 3 3 3 Offset 0.000 0.000 0.000 No. kpts 6 Spacing 0.07
REM Total runtime: 4202.36 s
REM Overall efficiency: 97.1667 %
REM
REM 4Ag2Se.cell (6404a18c6b5dc90313b5c56acf317f23)
REM
REM compiler GCC version 4.8.5 20150623 (Red Hat 4.8.5-39)
REM options -cpp -mtune=generic -march=x86-64 -g -Og
REM COMMAND_LINE
REM seed -579185457 161862494 -1700649654 521508910 -1283528175 -2137196013 1408948733 -827684809 163887896 688660499 641616517 -1366139050
REM
REM Se 3|2.1|7|7|9|40:41:32(qc=5)
REM Ag 3|2.2|7|7|9|40U:50:41:42(qc=5)
REM 
CELL 1.54180    7.13761    7.13761    7.09066   59.78074   59.78074   60.00000
LATT -1
SFAC Se Ag 
Se     1  0.0806268329371  0.4353781495794 -0.2963367097471 1.0
Se     1 -0.2196681727694  0.0806268329371 -0.2963367097471 1.0
Se     1  0.4353781495794 -0.2196681727694 -0.2963367097471 1.0
Se     1 -0.4004376376073 -0.4004376376073  1.2013130128218 1.0
Ag     2  0.0435014999110  0.3176301706320  0.1242985598497 1.0
Ag     2 -0.4854301303927  0.0435014999110  0.1242985598497 1.0
Ag     2  0.3176301706320 -0.4854301303927  0.1242985598497 1.0
Ag     2 -0.1731117939956 -0.3956938008938  0.4237151899888 1.0
Ag     2  0.1450905049006 -0.1731117939956  0.4237151899888 1.0
Ag     2 -0.3956938008938  0.1450905049006  0.4237151899888 1.0
Ag     2 -0.0099203697429 -0.0099203697429  0.0297612092288 1.0
Ag     2  0.1637473474417  0.1637473474417 -0.4912419423250 1.0
END
