TITL 4Ag2Se-200724-045513-2c1c83 -0.0274 233.257575 -4.61323290E+004 0 0 12 (P-1) n - 1
REM
REM Run started: Fri, 24 Jul 2020 06:29:47 +0100 in /scratch/scratch/uccabz1/launch_tmp/launcher_2020-07-24-03-55-10-808287
REM CASTEP 19.11| from code version Version unavailable
REM Functional Perdew Burke Ernzerhof Relativity Koelling-Harmon Dispersion off
REM Cut-off 300.0000 eV Grid scale 1.7500 Gmax 15.5288 1/A FBSC none
REM MP grid 3 3 3 Offset 0.000 0.000 0.000 No. kpts 14 Spacing 0.07
REM Total runtime: 5872.25 s
REM Overall efficiency: 72.5 %
REM
REM 4Ag2Se.cell (6404a18c6b5dc90313b5c56acf317f23)
REM
REM compiler GCC version 4.9.2
REM options -cpp -iprefix /scratch/UCL/applications/gcc/4.9.2/bin/../lib/gcc/x86_64-unknown-linux-gnu/4.9.2/ -mtune=corei7 -march=x86-64 -g -O2
REM COMMAND_LINE
REM seed -2040379798 -1189865513 -1048249853 -1252592973 -1545111797 330560419 -1278847342 1515702034 1192760694 604283444 1681454193 1747235154
REM
REM Se 3|2.1|7|7|9|40:41:32(qc=5)
REM Ag 3|2.2|7|7|9|40U:50:41:42(qc=5)
REM 
CELL 1.54180    6.06964    6.72530    6.77242   69.90497   64.62455   76.29138
LATT -1
SFAC Se Ag 
Se     1  0.3596705624862  0.2589590236421 -0.0287092365278 1.0
Se     1 -0.3596705624862 -0.2589590236421  0.0287092365278 1.0
Se     1  0.0541216868677  0.1879509393625 -0.3747740624904 1.0
Se     1 -0.0541216868677 -0.1879509393625  0.3747740624904 1.0
Ag     2 -0.3919567212215 -0.4394288940601 -0.3329368977164 1.0
Ag     2  0.3919567212215  0.4394288940601  0.3329368977164 1.0
Ag     2 -0.2199015429600  0.1635011887650  0.0808422582167 1.0
Ag     2  0.2199015429600 -0.1635011887650 -0.0808422582167 1.0
Ag     2 -0.3772654724913  0.0946904523490 -0.4005221831867 1.0
Ag     2  0.3772654724913 -0.0946904523490  0.4005221831867 1.0
Ag     2 -0.0707491529668  0.4473613744018  0.2446226130684 1.0
Ag     2  0.0707491529668 -0.4473613744018 -0.2446226130684 1.0
END
