TITL 4Ag2Se-200724-050759-a2bb69 -0.0383 234.199945 -4.61321370E+004 0 0 12 (P-1) n - 1
REM
REM Run started: Fri, 24 Jul 2020 06:36:26 +0100 in /scratch/scratch/uccabz1/launch_tmp/launcher_2020-07-24-04-07-57-051928
REM CASTEP 19.11| from code version Version unavailable
REM Functional Perdew Burke Ernzerhof Relativity Koelling-Harmon Dispersion off
REM Cut-off 300.0000 eV Grid scale 1.7500 Gmax 15.5288 1/A FBSC none
REM MP grid 4 3 2 Offset 0.000 0.000 0.000 No. kpts 12 Spacing 0.07
REM Total runtime: 5495.11 s
REM Overall efficiency: 95.875 %
REM
REM 4Ag2Se.cell (6404a18c6b5dc90313b5c56acf317f23)
REM
REM compiler GCC version 4.9.2
REM options -cpp -iprefix /scratch/UCL/applications/gcc/4.9.2/bin/../lib/gcc/x86_64-unknown-linux-gnu/4.9.2/ -mtune=corei7 -march=x86-64 -g -O2
REM COMMAND_LINE
REM seed -846318745 1146966395 583576705 -1393342887 -483777924 2013230411 -33826291 -1766523165 618526441 -117739199 -2007194469 -1409736340
REM
REM Se 3|2.1|7|7|9|40:41:32(qc=5)
REM Ag 3|2.2|7|7|9|40U:50:41:42(qc=5)
REM 
CELL 1.54180    3.98387    6.06678   10.38132   72.58214   78.20866   88.42314
LATT -1
SFAC Se Ag 
Se     1  0.2231213034734 -0.2764725117347  0.0691729771782 1.0
Se     1 -0.2231213034734  0.2764725117347 -0.0691729771782 1.0
Se     1 -0.1287081068089 -0.0955126730473 -0.3276810183159 1.0
Se     1  0.1287081068089  0.0955126730473  0.3276810183159 1.0
Ag     2  0.3304770660314  0.0783778725507 -0.1843191813274 1.0
Ag     2 -0.3304770660314 -0.0783778725507  0.1843191813274 1.0
Ag     2  0.3167989288427 -0.4081389082552 -0.1770889924231 1.0
Ag     2 -0.3167989288427  0.4081389082552  0.1770889924231 1.0
Ag     2 -0.0783712588236  0.4249415549928 -0.3533167948639 1.0
Ag     2  0.0783712588236 -0.4249415549928  0.3533167948639 1.0
Ag     2  0.5109977307270  0.2492562674284 -0.5018352270308 1.0
Ag     2 -0.5109977307270 -0.2492562674284  0.5018352270308 1.0
END
