TITL 4Ag2Se-200724-092935-eb2211 -0.0723 244.360102 -4.61319186E+004 0 0 12 (Cc) n - 1
REM
REM Run started: Fri, 24 Jul 2020 10:31:18 +0100 in /rds/user/bz240/hpc-work/airss-fw/launch_tmp/launcher_2020-07-24-08-29-32-889371
REM CASTEP 19.11| from code version Version unavailable
REM Functional Perdew Burke Ernzerhof Relativity Koelling-Harmon Dispersion off
REM Cut-off 300.0000 eV Grid scale 1.7500 Gmax 15.5288 1/A FBSC none
REM MP grid 3 3 3 Offset 0.000 0.000 0.000 No. kpts 10 Spacing 0.07
REM Total runtime: 3842.22 s
REM Overall efficiency: 72.6667 %
REM
REM 4Ag2Se.cell (6404a18c6b5dc90313b5c56acf317f23)
REM
REM compiler GCC version 4.8.5 20150623 (Red Hat 4.8.5-39)
REM options -cpp -mtune=generic -march=x86-64 -g -Og
REM COMMAND_LINE
REM seed 1808998267 -1461667119 -1287245773 1418785564 -1088651073 1367694831 202356663 -1773550228 944353842 155085043 -635156575 1647076765
REM
REM Se 3|2.1|7|7|9|40:41:32(qc=5)
REM Ag 3|2.2|7|7|9|40U:50:41:42(qc=5)
REM 
CELL 1.54180    5.30228    6.65221    7.76086   64.62291   86.20580   81.11784
LATT -1
SFAC Se Ag 
Se     1  0.3278933670221  0.2317680725345 -0.2166775808109 1.0
Se     1 -0.1721066329779  0.0150904917236  0.2166775808109 1.0
Se     1  0.0112012365282 -0.1597745598107 -0.2966796841448 1.0
Se     1 -0.4887987634718 -0.4564542439555  0.2966796841448 1.0
Ag     2  0.5129436209885 -0.3773042983480  0.6339156730174 1.0
Ag     2  0.0129436209885  0.2566113746693 -0.6339156730174 1.0
Ag     2  0.4054568583255  0.3262253737944  0.0773929399574 1.0
Ag     2 -0.0945431416745  0.4036183137517 -0.0773929399574 1.0
Ag     2  0.0281068474997 -0.4086830224829  0.4945126519710 1.0
Ag     2  0.5281068474997  0.0858296294882 -0.4945126519710 1.0
Ag     2  0.0568934696361 -0.2838287542358  0.0834297771070 1.0
Ag     2 -0.4431065303639 -0.2003989771288 -0.0834297771070 1.0
END
