TITL 4Ag2Se_TETRA-200724-180705-a68aaf -0.0221 249.244857 -4.61307361E+004 0 0 12 (Cc) n - 1
REM
REM Run started: Fri, 24 Jul 2020 19:17:24 +0100 in /scratch/scratch/uccabz1/launch_tmp/launcher_2020-07-24-17-07-03-908685
REM CASTEP 19.11| from code version Version unavailable
REM Functional Perdew Burke Ernzerhof Relativity Koelling-Harmon Dispersion off
REM Cut-off 300.0000 eV Grid scale 1.7500 Gmax 15.5288 1/A FBSC none
REM MP grid 3 3 3 Offset 0.000 0.000 0.000 No. kpts 10 Spacing 0.07
REM Total runtime: 4675.88 s
REM Overall efficiency: 94.8333 %
REM
REM 4Ag2Se_TETRA.cell (4020362940262d3df87d4014b41eb05e)
REM
REM compiler GCC version 4.9.2
REM options -cpp -iprefix /scratch/UCL/applications/gcc/4.9.2/bin/../lib/gcc/x86_64-unknown-linux-gnu/4.9.2/ -mtune=corei7 -march=x86-64 -g -O2
REM COMMAND_LINE
REM seed 301759926 1081999345 -1890799662 -220108664 -979072001 -1628280136 1225092018 2022391689 804714070 -2133605339 -1439603357 -1301647434
REM
REM Se 3|2.1|7|7|9|40:41:32(qc=5)
REM Ag 3|2.2|7|7|9|40U:50:41:42(qc=5)
REM 
CELL 1.54180    6.16329    6.57651    6.16329   88.94615   93.55965   88.94615
LATT -1
SFAC Se Ag 
Se     1  0.3521163107915  0.1030767215901 -0.3379214763030 1.0
Se     1 -0.3379214763030 -0.3969232784099  0.3521163107915 1.0
Se     1  0.0906351467184 -0.3871206930757 -0.1426154590584 1.0
Se     1 -0.1426154590584  0.1128793069243  0.0906351467184 1.0
Ag     2 -0.4922690251269 -0.0031821222884  0.2969760500249 1.0
Ag     2  0.2969760500249  0.4968178777116 -0.4922690251269 1.0
Ag     2 -0.0858733968737  0.3027769668625 -0.3909775139607 1.0
Ag     2 -0.3909775139607 -0.1972230331375 -0.0858733968737 1.0
Ag     2 -0.4075284108730  0.3893227046523 -0.1109715449428 1.0
Ag     2 -0.1109715449428 -0.1106772953477 -0.4075284108730 1.0
Ag     2  0.1103880981295 -0.2022486777407  0.2318322214741 1.0
Ag     2  0.2318322214741  0.2977513222593  0.1103880981295 1.0
END
