TITL 4Ag2Se_TETRA-200724-170707-fe42b9 -0.0119 272.306387 -4.61320059E+004 0 0 12 (P2) n - 1
REM
REM Run started: Fri, 24 Jul 2020 18:00:58 +0100 in /scratch/scratch/uccabz1/launch_tmp/launcher_2020-07-24-16-07-05-743500
REM CASTEP 19.11| from code version Version unavailable
REM Functional Perdew Burke Ernzerhof Relativity Koelling-Harmon Dispersion off
REM Cut-off 300.0000 eV Grid scale 1.7500 Gmax 15.5288 1/A FBSC none
REM MP grid 2 2 3 Offset 0.000 0.000 0.000 No. kpts 4 Spacing 0.07
REM Total runtime: 3581.88 s
REM Overall efficiency: 94.1667 %
REM
REM 4Ag2Se_TETRA.cell (4020362940262d3df87d4014b41eb05e)
REM
REM compiler GCC version 4.9.2
REM options -cpp -iprefix /scratch/UCL/applications/gcc/4.9.2/bin/../lib/gcc/x86_64-unknown-linux-gnu/4.9.2/ -mtune=corei7 -march=x86-64 -g -O2
REM COMMAND_LINE
REM seed -2043742365 -2067497371 -379040173 347915952 471615835 1221755141 2087543016 1310529809 -218311748 817103118 2071305249 -536221345
REM
REM Se 3|2.1|7|7|9|40:41:32(qc=5)
REM Ag 3|2.2|7|7|9|40U:50:41:42(qc=5)
REM 
CELL 1.54180    7.35356    7.59914    4.87299   90.00000   90.00000   90.02113
LATT -1
SFAC Se Ag 
Se     1  0.2965175642711  0.2858567337235  0.4855669307420 1.0
Se     1 -0.2965175642711 -0.2858567337235  0.4855669307420 1.0
Se     1  0.2721782259260 -0.1578666540811  0.0118749289943 1.0
Se     1 -0.2721782259260  0.1578666540811  0.0118749289943 1.0
Ag     2 -0.3552347662051  0.3790452901539 -0.3851886816491 1.0
Ag     2  0.3552347662051 -0.3790452901539 -0.3851886816491 1.0
Ag     2 -0.1856532576638  0.0540090087017 -0.5006058411075 1.0
Ag     2  0.1856532576638 -0.0540090087017 -0.5006058411075 1.0
Ag     2  0.0901717617598  0.1791247643015 -0.0645053803575 1.0
Ag     2 -0.0901717617598 -0.1791247643015 -0.0645053803575 1.0
Ag     2  0.1939202390691 -0.4856514682725  0.1168204433778 1.0
Ag     2 -0.1939202390691  0.4856514682725  0.1168204433778 1.0
END
