TITL 4Ag2Se-200724-031019-1dbd49 -0.0008 238.184178 -4.61324884E+004 0 0 12 (P21/m) n - 1
REM
REM Run started: Fri, 24 Jul 2020 04:25:24 +0100 in /rds/user/bz240/hpc-work/airss-fw/launch_tmp/launcher_2020-07-24-02-10-17-934768
REM CASTEP 19.11| from code version Version unavailable
REM Functional Perdew Burke Ernzerhof Relativity Koelling-Harmon Dispersion off
REM Cut-off 300.0000 eV Grid scale 1.7500 Gmax 15.5288 1/A FBSC none
REM MP grid 4 2 2 Offset 0.000 0.000 0.000 No. kpts 4 Spacing 0.07
REM Total runtime: 4583.31 s
REM Overall efficiency: 95.2 %
REM
REM 4Ag2Se.cell (6404a18c6b5dc90313b5c56acf317f23)
REM
REM compiler GCC version 4.8.5 20150623 (Red Hat 4.8.5-39)
REM options -cpp -mtune=generic -march=x86-64 -g -Og
REM COMMAND_LINE
REM seed -501519167 393812622 132628525 1308284835 806795625 1982292975 -553677677 -1509409300 -16441298 212077619 -980173515 294344878
REM
REM Se 3|2.1|7|7|9|40:41:32(qc=5)
REM Ag 3|2.2|7|7|9|40U:50:41:42(qc=5)
REM 
CELL 1.54180    4.21224    7.32416    7.77686   96.90629   90.00000   90.00000
LATT -1
SFAC Se Ag 
Se     1 -0.4157524000000  0.2217268044747 -0.1340714993374 1.0
Se     1  0.0842476000000 -0.2217268044747  0.1340714993374 1.0
Se     1 -0.4157524000000 -0.2158028113126 -0.4391893824067 1.0
Se     1  0.0842476000000  0.2158028113126  0.4391893824067 1.0
Ag     2  0.0842476000000 -0.4941291704468 -0.1422167181936 1.0
Ag     2 -0.4157524000000  0.4941291704468  0.1422167181936 1.0
Ag     2  0.0842476000000 -0.4268541240397  0.4006308199949 1.0
Ag     2 -0.4157524000000  0.4268541240397 -0.4006308199949 1.0
Ag     2  0.0842476000000 -0.0168630212404 -0.2756602891551 1.0
Ag     2 -0.4157524000000  0.0168630212404  0.2756602891551 1.0
Ag     2  0.0842476000000  0.2124539846598  0.0992186582195 1.0
Ag     2 -0.4157524000000 -0.2124539846598 -0.0992186582195 1.0
END
