TITL 4Ag2Se-200724-033415-5b9e97 0.0224 250.725288 -4.61315170E+004 0 0 12 (C2) n - 1
REM
REM Run started: Fri, 24 Jul 2020 04:42:29 +0100 in /scratch/scratch/uccabz1/launch_tmp/launcher_2020-07-24-02-34-13-224176
REM CASTEP 19.11| from code version Version unavailable
REM Functional Perdew Burke Ernzerhof Relativity Koelling-Harmon Dispersion off
REM Cut-off 300.0000 eV Grid scale 1.7500 Gmax 15.5288 1/A FBSC none
REM MP grid 3 3 3 Offset 0.000 0.000 0.000 No. kpts 10 Spacing 0.07
REM Total runtime: 4142.82 s
REM Overall efficiency: 93.7143 %
REM
REM 4Ag2Se.cell (6404a18c6b5dc90313b5c56acf317f23)
REM
REM compiler GCC version 4.9.2
REM options -cpp -iprefix /scratch/UCL/applications/gcc/4.9.2/bin/../lib/gcc/x86_64-unknown-linux-gnu/4.9.2/ -mtune=corei7 -march=x86-64 -g -O2
REM COMMAND_LINE
REM seed -1492974866 -1191696183 836988382 1526791835 1088472895 183383299 -1739669967 2136371821 1892344768 -1089295253 1243924605 -1905296944
REM
REM Se 3|2.1|7|7|9|40:41:32(qc=5)
REM Ag 3|2.2|7|7|9|40U:50:41:42(qc=5)
REM 
CELL 1.54180    5.46612    6.91813    7.70441   63.32225   83.06004   74.38787
LATT -1
SFAC Se Ag 
Se     1  0.1990401071609  0.3948021925781 -0.3464550399000 1.0
Se     1 -0.1990401071609 -0.0483472526781 -0.3464550399000 1.0
Se     1 -0.3320159227008 -0.3627714767465  0.1605284542824 1.0
Se     1  0.3320159227008  0.2022429224641  0.1605284542824 1.0
Ag     2 -0.2009911200653  0.1913783277632  0.2645482273726 1.0
Ag     2  0.2009911200653 -0.4559266551358  0.2645482273726 1.0
Ag     2 -0.2359176089760 -0.2826853668145  0.4446874427516 1.0
Ag     2  0.2359176089760 -0.1620021759371  0.4446874427516 1.0
Ag     2  0.2281514953492 -0.3612993811499 -0.1443002322247 1.0
Ag     2 -0.2281514953492  0.5055995133746 -0.1443002322247 1.0
Ag     2 -0.2634290341460  0.0732350418860 -0.0492897522819 1.0
Ag     2  0.2634290341460 -0.0239453896040 -0.0492897522819 1.0
END
