TITL 4Ag2Se-200724-072118-d6699e 0.0659 237.099535 -4.61323962E+004 0 0 12 (C2/c) n - 1
REM
REM Run started: Fri, 24 Jul 2020 09:01:54 +0100 in /rds/user/bz240/hpc-work/airss-fw/launch_tmp/launcher_2020-07-24-06-21-16-023539
REM CASTEP 19.11| from code version Version unavailable
REM Functional Perdew Burke Ernzerhof Relativity Koelling-Harmon Dispersion off
REM Cut-off 300.0000 eV Grid scale 1.7500 Gmax 15.5288 1/A FBSC none
REM MP grid 4 3 3 Offset 0.000 0.000 0.000 No. kpts 12 Spacing 0.07
REM Total runtime: 6420.99 s
REM Overall efficiency: 97 %
REM
REM 4Ag2Se.cell (6404a18c6b5dc90313b5c56acf317f23)
REM
REM compiler GCC version 4.8.5 20150623 (Red Hat 4.8.5-39)
REM options -cpp -mtune=generic -march=x86-64 -g -Og
REM COMMAND_LINE
REM seed -2029938464 -1987102842 1641452669 -1801556037 -1716560143 173301926 1178177091 2014394874 1120513161 1650450264 212244252 1899924772
REM
REM Se 3|2.1|7|7|9|40:41:32(qc=5)
REM Ag 3|2.2|7|7|9|40U:50:41:42(qc=5)
REM 
CELL 1.54180    4.63889    8.12716    8.12716   53.33423   76.38869   76.38869
LATT -1
SFAC Se Ag 
Se     1 -0.1019794343839 -0.2013264321310  0.4155265902851 1.0
Se     1  0.6019794343839 -0.4155265902851  0.2013264321310 1.0
Se     1  0.1019794343839  0.2013264321310 -0.4155265902851 1.0
Se     1 -0.6019794343839  0.4155265902851 -0.2013264321310 1.0
Ag     2 -0.5854749391277 -0.0268144949339  0.1978005820597 1.0
Ag     2  0.0854749391277 -0.1978005820597  0.0268144949339 1.0
Ag     2  0.5854749391277  0.0268144949339 -0.1978005820597 1.0
Ag     2 -0.0854749391277  0.1978005820597 -0.0268144949339 1.0
Ag     2  0.7783884873987 -0.3816055750200 -0.1501904401129 1.0
Ag     2 -0.2783884873987  0.1501904401129  0.3816055750200 1.0
Ag     2 -0.7783884873987  0.3816055750200  0.1501904401129 1.0
Ag     2  0.2783884873987 -0.1501904401129 -0.3816055750200 1.0
END
