TITL 4Ag2Se-200724-070740-8d4c9c -0.0183 235.921954 -4.61323141E+004 0 0 12 (P-1) n - 1
REM
REM Run started: Fri, 24 Jul 2020 08:08:44 +0100 in /scratch/scratch/uccabz1/launch_tmp/launcher_2020-07-24-06-07-38-227892
REM CASTEP 19.11| from code version Version unavailable
REM Functional Perdew Burke Ernzerhof Relativity Koelling-Harmon Dispersion off
REM Cut-off 300.0000 eV Grid scale 1.7500 Gmax 15.5288 1/A FBSC none
REM MP grid 3 3 3 Offset 0.000 0.000 0.000 No. kpts 14 Spacing 0.07
REM Total runtime: 4601.89 s
REM Overall efficiency: 67.8333 %
REM
REM 4Ag2Se.cell (6404a18c6b5dc90313b5c56acf317f23)
REM
REM compiler GCC version 4.9.2
REM options -cpp -iprefix /scratch/UCL/applications/gcc/4.9.2/bin/../lib/gcc/x86_64-unknown-linux-gnu/4.9.2/ -mtune=corei7 -march=x86-64 -g -O2
REM COMMAND_LINE
REM seed -880899626 1493726775 -1732060150 -733839611 -24089877 1847400433 -146482427 169775027 1508587295 2037802165 532581274 1609081773
REM
REM Se 3|2.1|7|7|9|40:41:32(qc=5)
REM Ag 3|2.2|7|7|9|40U:50:41:42(qc=5)
REM 
CELL 1.54180    6.49155    6.49250    6.48176   74.91649   74.83979   65.26960
LATT -1
SFAC Se Ag 
Se     1 -0.3712288239672  0.5478916675758 -0.2920621202378 1.0
Se     1  0.3712288239672 -0.5478916675758  0.2920621202378 1.0
Se     1  0.0408765605980  0.1304433933983  0.2088803491239 1.0
Se     1 -0.0408765605980 -0.1304433933983 -0.2088803491239 1.0
Ag     2 -0.2439099323269  0.5859055949326  0.0982178911953 1.0
Ag     2  0.2439099323269 -0.5859055949326 -0.0982178911953 1.0
Ag     2  0.3923902102972 -0.1479022832273  0.4151930082849 1.0
Ag     2 -0.3923902102972  0.1479022832273 -0.4151930082849 1.0
Ag     2 -0.0858322655542 -0.2566318410230  0.4024211523283 1.0
Ag     2  0.0858322655542  0.2566318410230 -0.4024211523283 1.0
Ag     2  0.3558796417092 -0.0987758365211 -0.0852651965976 1.0
Ag     2 -0.3558796417092  0.0987758365211  0.0852651965976 1.0
END
