TITL 4Ag2Se_TETRA-200724-121547-291650 -0.0044 250.177046 -4.61318501E+004 0 0 12 (P-1) n - 1
REM
REM Run started: Fri, 24 Jul 2020 14:01:28 +0100 in /scratch/scratch/uccabz1/launch_tmp/launcher_2020-07-24-12-33-23-323964
REM CASTEP 19.11| from code version Version unavailable
REM Functional Perdew Burke Ernzerhof Relativity Koelling-Harmon Dispersion off
REM Cut-off 300.0000 eV Grid scale 1.7500 Gmax 15.5288 1/A FBSC none
REM MP grid 3 3 2 Offset 0.000 0.000 0.000 No. kpts 9 Spacing 0.07
REM Total runtime: 2017.52 s
REM Overall efficiency: 71.875 %
REM
REM
REM
REM compiler GCC version 4.8.5 20150623 (Red Hat 4.8.5-39)
REM options -cpp -mtune=generic -march=x86-64 -g -Og
REM COMMAND_LINE
REM seed 844255692 302043977 559578444 -1510657700 495131586 1624497614 -1844923498 1539738032 1564162875 218242506 1359314125 -1950717467
REM
REM Se 3|2.1|7|7|9|40:41:32(qc=5)
REM Ag 3|2.2|7|7|9|40U:50:41:42(qc=5)
REM 
CELL 1.54180    5.19150    5.22968    9.21710   89.64905   90.49159   88.83454
LATT -1
SFAC Se Ag 
Se     1 -0.2444566580448 -0.2977201965431 -0.1170800525151 1.0
Se     1  0.2444566580448  0.2977201965431  0.1170800525151 1.0
Se     1  0.1693698604074  0.1941517308636 -0.3383550584504 1.0
Se     1 -0.1693698604074 -0.1941517308636  0.3383550584504 1.0
Ag     2  0.2515115275478 -0.1476288767835 -0.0945171089687 1.0
Ag     2 -0.2515115275478  0.1476288767835  0.0945171089687 1.0
Ag     2 -0.3835647948468  0.2401899569816 -0.1973039085948 1.0
Ag     2  0.3835647948468 -0.2401899569816  0.1973039085948 1.0
Ag     2 -0.3430481681211 -0.1698323940236 -0.3932370919548 1.0
Ag     2  0.3430481681211  0.1698323940236  0.3932370919548 1.0
Ag     2  0.1678036169545 -0.3191161003871 -0.4419136104088 1.0
Ag     2 -0.1678036169545  0.3191161003871  0.4419136104088 1.0
END
