TITL 4Ag2Se-200724-053658-1876c4 0.0400 247.871584 -4.61317477E+004 0 0 12 (P41212) n - 1
REM
REM Run started: Fri, 24 Jul 2020 05:46:17 +0100 in /scratch/scratch/uccabz1/launch_tmp/launcher_2020-07-24-04-36-56-999739
REM CASTEP 19.11| from code version Version unavailable
REM Functional Perdew Burke Ernzerhof Relativity Koelling-Harmon Dispersion off
REM Cut-off 300.0000 eV Grid scale 1.7500 Gmax 15.5288 1/A FBSC none
REM MP grid 4 4 1 Offset 0.000 0.000 0.000 No. kpts 3 Spacing 0.07
REM Total runtime: 586.19 s
REM Overall efficiency: 70 %
REM
REM 4Ag2Se.cell (6404a18c6b5dc90313b5c56acf317f23)
REM
REM compiler GCC version 4.9.2
REM options -cpp -iprefix /scratch/UCL/applications/gcc/4.9.2/bin/../lib/gcc/x86_64-unknown-linux-gnu/4.9.2/ -mtune=corei7 -march=x86-64 -g -O2
REM COMMAND_LINE
REM seed 326344484 982412598 1562113169 161557352 -30306485 -1400367719 726268598 -340367311 1550028148 1063306332 -66756175 -613842073
REM
REM Se 3|2.1|7|7|9|40:41:32(qc=5)
REM Ag 3|2.2|7|7|9|40U:50:41:42(qc=5)
REM 
CELL 1.54180    4.02096    4.02096   15.33089   90.00000   90.00000   90.00000
LATT -1
SFAC Se Ag 
Se     1  0.2777402141443 -0.2222597858557 -0.1016211000000 1.0
Se     1 -0.2777402141443  0.2222597858557  0.3983789000000 1.0
Se     1 -0.2222597858557 -0.2777402141443 -0.3516211000000 1.0
Se     1  0.2222597858557  0.2777402141443  0.1483789000000 1.0
Ag     2 -0.4631744271091 -0.2269458857355  0.0607738158048 1.0
Ag     2  0.4631744271091  0.2269458857355 -0.4392261841952 1.0
Ag     2 -0.2269458857355  0.4631744271091 -0.1892261841952 1.0
Ag     2  0.2269458857355 -0.4631744271091  0.3107738158048 1.0
Ag     2  0.0368255728909 -0.2730541142645  0.4859839841952 1.0
Ag     2 -0.0368255728909  0.2730541142645 -0.0140160158048 1.0
Ag     2 -0.2730541142645 -0.0368255728909  0.2359839841952 1.0
Ag     2  0.2730541142645  0.0368255728909 -0.2640160158048 1.0
END
