TITL 4Ag2Se-200724-052721-e2e305 0.0218 234.060106 -4.61317956E+004 0 0 12 (P2) n - 1
REM
REM Run started: Fri, 24 Jul 2020 06:19:59 +0100 in /scratch/scratch/uccabz1/launch_tmp/launcher_2020-07-24-04-27-19-941586
REM CASTEP 19.11| from code version Version unavailable
REM Functional Perdew Burke Ernzerhof Relativity Koelling-Harmon Dispersion off
REM Cut-off 300.0000 eV Grid scale 1.7500 Gmax 15.5288 1/A FBSC none
REM MP grid 3 3 2 Offset 0.000 0.000 0.000 No. kpts 6 Spacing 0.07
REM Total runtime: 3427.46 s
REM Overall efficiency: 94.625 %
REM
REM 4Ag2Se.cell (6404a18c6b5dc90313b5c56acf317f23)
REM
REM compiler GCC version 4.9.2
REM options -cpp -iprefix /scratch/UCL/applications/gcc/4.9.2/bin/../lib/gcc/x86_64-unknown-linux-gnu/4.9.2/ -mtune=corei7 -march=x86-64 -g -O2
REM COMMAND_LINE
REM seed -1353868247 -234036258 -573594943 -1112743765 1873778329 -1715514099 -126687080 -1180277256 -1299824240 259485322 1729961714 -632489107
REM
REM Se 3|2.1|7|7|9|40:41:32(qc=5)
REM Ag 3|2.2|7|7|9|40U:50:41:42(qc=5)
REM 
CELL 1.54180    5.04346    5.64991    8.31168   98.79021   90.00000   90.00000
LATT -1
SFAC Se Ag 
Se     1  0.0143129348787  0.1884635505769  0.1864911581392 1.0
Se     1  0.0143129348787 -0.1884635505769 -0.1864911581392 1.0
Se     1 -0.5027178263549 -0.2969001924487  0.3122310547823 1.0
Se     1 -0.5027178263549  0.2969001924487 -0.3122310547823 1.0
Ag     2  0.4855574254210 -0.2543785840250 -0.0132148835147 1.0
Ag     2  0.4855574254210  0.2543785840250  0.0132148835147 1.0
Ag     2 -0.0031525294880 -0.2548724904741  0.4842117720840 1.0
Ag     2 -0.0031525294880  0.2548724904741 -0.4842117720840 1.0
Ag     2 -0.0172942533397  0.3173159661661 -0.1402117175192 1.0
Ag     2 -0.0172942533397 -0.3173159661661  0.1402117175192 1.0
Ag     2  0.5028369488828 -0.2048281605108 -0.3439511191523 1.0
Ag     2  0.5028369488828  0.2048281605108  0.3439511191523 1.0
END
