TITL 4Ag2Se_TETRA-200724-143853-0a3550 0.0095 252.569179 -4.61323028E+004 0 0 12 (P-1) n - 1
REM
REM Run started: Fri, 24 Jul 2020 15:33:04 +0100 in /rds/user/bz240/hpc-work/airss-fw/launch_tmp/launcher_2020-07-24-13-38-52-172955
REM CASTEP 19.11| from code version Version unavailable
REM Functional Perdew Burke Ernzerhof Relativity Koelling-Harmon Dispersion off
REM Cut-off 300.0000 eV Grid scale 1.7500 Gmax 15.5288 1/A FBSC none
REM MP grid 2 2 4 Offset 0.000 0.000 0.000 No. kpts 8 Spacing 0.07
REM Total runtime: 3578.47 s
REM Overall efficiency: 94.8333 %
REM
REM 4Ag2Se_TETRA.cell (4020362940262d3df87d4014b41eb05e)
REM
REM compiler GCC version 4.8.5 20150623 (Red Hat 4.8.5-39)
REM options -cpp -mtune=generic -march=x86-64 -g -Og
REM COMMAND_LINE
REM seed 1293154853 -1017858726 2112336312 -1925134797 -708858822 832455203 -851437469 -405650001 -2038909403 -1309359536 322335918 -425635748
REM
REM Se 3|2.1|7|7|9|40:41:32(qc=5)
REM Ag 3|2.2|7|7|9|40U:50:41:42(qc=5)
REM 
CELL 1.54180    7.87651    7.92141    4.05469   88.29735   91.29498   87.54802
LATT -1
SFAC Se Ag 
Se     1  0.3792135740567  0.2876222422366  0.1861223322006 1.0
Se     1 -0.3792135740567 -0.2876222422366 -0.1861223322006 1.0
Se     1 -0.1485727350296  0.2635066227625 -0.0736553936877 1.0
Se     1  0.1485727350296 -0.2635066227625  0.0736553936877 1.0
Ag     2  0.3395653740922 -0.4711429213984 -0.3265443116706 1.0
Ag     2 -0.3395653740922  0.4711429213984  0.3265443116706 1.0
Ag     2 -0.0708543981871 -0.3307048483638 -0.4574690154826 1.0
Ag     2  0.0708543981871  0.3307048483638  0.4574690154826 1.0
Ag     2 -0.3693189562007  0.1140777196878 -0.4871497175166 1.0
Ag     2  0.3693189562007 -0.1140777196878  0.4871497175166 1.0
Ag     2 -0.1636624473788 -0.0693151949829  0.0252219607060 1.0
Ag     2  0.1636624473788  0.0693151949829 -0.0252219607060 1.0
END
