TITL 4Ag2Se-200724-055131-ae0241 0.0389 229.469253 -4.61317837E+004 0 0 12 (C2/m) n - 1
REM
REM Run started: Fri, 24 Jul 2020 07:14:18 +0100 in /scratch/scratch/uccabz1/launch_tmp/launcher_2020-07-24-04-51-29-583379
REM CASTEP 19.11| from code version Version unavailable
REM Functional Perdew Burke Ernzerhof Relativity Koelling-Harmon Dispersion off
REM Cut-off 300.0000 eV Grid scale 1.7500 Gmax 15.5288 1/A FBSC none
REM MP grid 4 3 2 Offset 0.000 0.000 0.000 No. kpts 12 Spacing 0.07
REM Total runtime: 5294.89 s
REM Overall efficiency: 96.2857 %
REM
REM 4Ag2Se.cell (6404a18c6b5dc90313b5c56acf317f23)
REM
REM compiler GCC version 4.9.2
REM options -cpp -iprefix /scratch/UCL/applications/gcc/4.9.2/bin/../lib/gcc/x86_64-unknown-linux-gnu/4.9.2/ -mtune=corei7 -march=x86-64 -g -O2
REM COMMAND_LINE
REM seed -1371560828 1134364776 -976562067 1452844710 454812859 -735183028 1264482211 -500504072 -1377328751 -579987008 996176405 -365765906
REM
REM Se 3|2.1|7|7|9|40:41:32(qc=5)
REM Ag 3|2.2|7|7|9|40U:50:41:42(qc=5)
REM 
CELL 1.54180    3.85700    6.18854   10.33421   82.18887   79.24479   71.84283
LATT -1
SFAC Se Ag 
Se     1  0.1983944590043 -0.2498855877168 -0.0776997141182 1.0
Se     1 -0.1291909428307  0.2498857877168  0.0776997141182 1.0
Se     1 -0.1293454090355 -0.2519360791432 -0.4196873884256 1.0
Se     1  0.1990310233958  0.2519362791432  0.4196873884256 1.0
Ag     2  0.1854838815868  0.0206679918950 -0.3224049478016 1.0
Ag     2 -0.1162531743198 -0.0206677918950  0.3224049478016 1.0
Ag     2 -0.1150759143255  0.4773858385575 -0.1781173226732 1.0
Ag     2  0.1841925015588 -0.4773856385575  0.1781173226732 1.0
Ag     2  0.5361579598705 -0.3789431898339  0.3758530072062 1.0
Ag     2 -0.4669323227572  0.3789433898339 -0.3758530072062 1.0
Ag     2  0.5391480206985  0.1161434618968 -0.1254664654412 1.0
Ag     2  0.5298249171540 -0.1161432618968  0.1254664654412 1.0
END
