TITL 4Ag2Se_TETRA-200724-181024-d6edac 0.0718 244.700800 -4.61323042E+004 0 0 12 (Pna21) n - 1
REM
REM Run started: Fri, 24 Jul 2020 19:19:45 +0100 in /scratch/scratch/uccabz1/launch_tmp/launcher_2020-07-24-17-10-22-939319
REM CASTEP 19.11| from code version Version unavailable
REM Functional Perdew Burke Ernzerhof Relativity Koelling-Harmon Dispersion off
REM Cut-off 300.0000 eV Grid scale 1.7500 Gmax 15.5288 1/A FBSC none
REM MP grid 3 3 3 Offset 0.000 0.000 0.000 No. kpts 8 Spacing 0.07
REM Total runtime: 4598.76 s
REM Overall efficiency: 95.0833 %
REM
REM 4Ag2Se_TETRA.cell (4020362940262d3df87d4014b41eb05e)
REM
REM compiler GCC version 4.9.2
REM options -cpp -iprefix /scratch/UCL/applications/gcc/4.9.2/bin/../lib/gcc/x86_64-unknown-linux-gnu/4.9.2/ -mtune=corei7 -march=x86-64 -g -O2
REM COMMAND_LINE
REM seed -417500637 -684294611 -953295473 231662668 607661763 -26399521 -2075781305 -1693080259 -1197966889 706273711 -1338580574 829178863
REM
REM Se 3|2.1|7|7|9|40:41:32(qc=5)
REM Ag 3|2.2|7|7|9|40U:50:41:42(qc=5)
REM 
CELL 1.54180    6.73410    7.05083    5.15365   90.00000   90.00000   90.00000
LATT -1
SFAC Se Ag 
Se     1  0.2212335172849 -0.4625272603790 -0.0327602176039 1.0
Se     1 -0.2212335172849  0.4625272603790  0.4672397823961 1.0
Se     1 -0.2787664827151 -0.0374727396210 -0.0327602176039 1.0
Se     1  0.2787664827151  0.0374727396210  0.4672397823961 1.0
Ag     2  0.4951005846250 -0.2883742552325  0.3945326225785 1.0
Ag     2 -0.4951005846250  0.2883742552325 -0.1054673774215 1.0
Ag     2 -0.0048994153750 -0.2116257447675  0.3945326225785 1.0
Ag     2  0.0048994153750  0.2116257447675 -0.1054673774215 1.0
Ag     2  0.1972092064204  0.4148429842845  0.4566305950254 1.0
Ag     2 -0.1972092064204 -0.4148429842845 -0.0433694049746 1.0
Ag     2 -0.3027907935796  0.0851570157155  0.4566305950254 1.0
Ag     2  0.3027907935796 -0.0851570157155 -0.0433694049746 1.0
END
