TITL 4Ag2Se_TETRA-200724-161717-7ad86d 0.3730 249.608177 -4.61323267E+004 0 0 12 (R3m) n - 1
REM
REM Run started: Fri, 24 Jul 2020 17:01:57 +0100 in /scratch/scratch/uccabz1/launch_tmp/launcher_2020-07-24-15-17-15-798468
REM CASTEP 19.11| from code version Version unavailable
REM Functional Perdew Burke Ernzerhof Relativity Koelling-Harmon Dispersion off
REM Cut-off 300.0000 eV Grid scale 1.7500 Gmax 15.5288 1/A FBSC none
REM MP grid 3 3 3 Offset 0.000 0.000 0.000 No. kpts 6 Spacing 0.07
REM Total runtime: 2973.63 s
REM Overall efficiency: 92.8333 %
REM
REM 4Ag2Se_TETRA.cell (4020362940262d3df87d4014b41eb05e)
REM
REM compiler GCC version 4.9.2
REM options -cpp -iprefix /scratch/UCL/applications/gcc/4.9.2/bin/../lib/gcc/x86_64-unknown-linux-gnu/4.9.2/ -mtune=corei7 -march=x86-64 -g -O2
REM COMMAND_LINE
REM seed 595950502 -819757930 1731562080 1444774454 954231971 -199348778 -919278913 -840921998 -1446437456 -563195600 -1084045571 -239301720
REM
REM Se 3|2.1|7|7|9|40:41:32(qc=5)
REM Ag 3|2.2|7|7|9|40U:50:41:42(qc=5)
REM 
CELL 1.54180    6.32089    6.32089    6.32089   94.89665   94.89665   94.89665
LATT -1
SFAC Se Ag 
Se     1  0.0088092601374  0.0088092601374 -0.4628507606288 1.0
Se     1  0.0088092601374 -0.4628507606288  0.0088092601374 1.0
Se     1 -0.4628507606288  0.0088092601374  0.0088092601374 1.0
Se     1  0.4272030294388  0.4272030294388  0.4272030294388 1.0
Ag     2  0.2881351036675 -0.1877012824030  0.2881351036675 1.0
Ag     2 -0.1877012824030  0.2881351036675  0.2881351036675 1.0
Ag     2  0.2881351036675  0.2881351036675 -0.1877012824030 1.0
Ag     2 -0.2815708706058  0.2644716308641 -0.2815708706058 1.0
Ag     2  0.2644716308641 -0.2815708706058 -0.2815708706058 1.0
Ag     2 -0.2815708706058 -0.2815708706058  0.2644716308641 1.0
Ag     2  0.0020343817708  0.0020343817708  0.0020343817708 1.0
Ag     2 -0.2889169854401 -0.2889169854401 -0.2889169854401 1.0
END
