TITL 4Ag2Se-200724-073750-d516fe -0.0046 248.814451 -4.61321209E+004 0 0 12 (Pc) n - 1
REM
REM Run started: Fri, 24 Jul 2020 09:31:17 +0100 in /scratch/scratch/uccabz1/launch_tmp/launcher_2020-07-24-06-37-48-786440
REM CASTEP 19.11| from code version Version unavailable
REM Functional Perdew Burke Ernzerhof Relativity Koelling-Harmon Dispersion off
REM Cut-off 300.0000 eV Grid scale 1.7500 Gmax 15.5288 1/A FBSC none
REM MP grid 4 3 2 Offset 0.000 0.000 0.000 No. kpts 6 Spacing 0.07
REM Total runtime: 6834.36 s
REM Overall efficiency: 93.5 %
REM
REM 4Ag2Se.cell (6404a18c6b5dc90313b5c56acf317f23)
REM
REM compiler GCC version 4.9.2
REM options -cpp -iprefix /scratch/UCL/applications/gcc/4.9.2/bin/../lib/gcc/x86_64-unknown-linux-gnu/4.9.2/ -mtune=corei7 -march=x86-64 -g -O2
REM COMMAND_LINE
REM seed 770967526 -1692659211 1930547441 -867989574 -434589866 -928890481 1253906446 1746695697 543933826 -1198847717 -1510057750 -218003841
REM
REM Se 3|2.1|7|7|9|40:41:32(qc=5)
REM Ag 3|2.2|7|7|9|40U:50:41:42(qc=5)
REM 
CELL 1.54180    4.31706    5.97546    9.64885   90.00000   90.00000   91.55363
LATT -1
SFAC Se Ag 
Se     1 -0.4256916112641  0.3464519801692 -0.3231989124657 1.0
Se     1  0.0743083887359  0.3464519801692  0.3231989124657 1.0
Se     1 -0.4070790084321 -0.1521962764712  0.1773830680882 1.0
Se     1  0.0929209915679 -0.1521962764712 -0.1773830680882 1.0
Ag     2  0.1332413887556  0.4186210023784 -0.1062556388661 1.0
Ag     2 -0.3667586112444  0.4186210023784  0.1062556388661 1.0
Ag     2 -0.3940554666452  0.0733565586138 -0.0964900656597 1.0
Ag     2  0.1059445333548  0.0733565586138  0.0964900656597 1.0
Ag     2  0.0945623620710 -0.0889391710766  0.3908830581655 1.0
Ag     2 -0.4054376379290 -0.0889391710766 -0.3908830581655 1.0
Ag     2  0.0782650355148 -0.4314571936136 -0.4031865110494 1.0
Ag     2 -0.4217349644852 -0.4314571936136  0.4031865110494 1.0
END
