TITL 4Ag2Se_TETRA-200724-124334-c85cdb 0.0165 266.577454 -4.61323896E+004 0 0 12 (R3) n - 1
REM
REM Run started: Fri, 24 Jul 2020 13:32:05 +0100 in /scratch/scratch/uccabz1/launch_tmp/launcher_2020-07-24-11-43-32-331404
REM CASTEP 19.11| from code version Version unavailable
REM Functional Perdew Burke Ernzerhof Relativity Koelling-Harmon Dispersion off
REM Cut-off 300.0000 eV Grid scale 1.7500 Gmax 15.5288 1/A FBSC none
REM MP grid 3 3 3 Offset 0.000 0.000 0.000 No. kpts 6 Spacing 0.07
REM Total runtime: 3215.47 s
REM Overall efficiency: 93 %
REM
REM 4Ag2Se_TETRA.cell (4020362940262d3df87d4014b41eb05e)
REM
REM compiler GCC version 4.9.2
REM options -cpp -iprefix /scratch/UCL/applications/gcc/4.9.2/bin/../lib/gcc/x86_64-unknown-linux-gnu/4.9.2/ -mtune=corei7 -march=x86-64 -g -O2
REM COMMAND_LINE
REM seed 1560913269 1890155179 -408872259 1564424937 -495752394 444343600 -974701532 -1007650404 -936216381 187103148 -1940310593 -1882309920
REM
REM Se 3|2.1|7|7|9|40:41:32(qc=5)
REM Ag 3|2.2|7|7|9|40U:50:41:42(qc=5)
REM 
CELL 1.54180    6.43628    6.43628    6.43628   89.35641   89.35641   89.35641
LATT -1
SFAC Se Ag 
Se     1 -0.2352614254496  0.3314374287810 -0.1659080333510 1.0
Se     1 -0.1659080333510 -0.2352614254496  0.3314374287810 1.0
Se     1  0.3314374287810 -0.1659080333510 -0.2352614254496 1.0
Se     1  0.3025603256617  0.3025603256617  0.3025603256617 1.0
Ag     2 -0.3477908451605 -0.0423147495610 -0.0121475610605 1.0
Ag     2 -0.0121475610605 -0.3477908451605 -0.0423147495610 1.0
Ag     2 -0.0423147495610 -0.0121475610605 -0.3477908451605 1.0
Ag     2  0.1564770893199  0.3672594414487 -0.3161366305134 1.0
Ag     2 -0.3161366305134  0.1564770893199  0.3672594414487 1.0
Ag     2  0.3672594414487 -0.3161366305134  0.1564770893199 1.0
Ag     2 -0.4522103061280 -0.4522103061280 -0.4522103061280 1.0
Ag     2  0.0749432660128  0.0749432660128  0.0749432660128 1.0
END
