TITL 4Ag2Se-200724-061453-694594 0.0516 246.403939 -4.61325467E+004 0 0 12 (R3) n - 1
REM
REM Run started: Fri, 24 Jul 2020 06:55:27 +0100 in /rds/user/bz240/hpc-work/airss-fw/launch_tmp/launcher_2020-07-24-05-14-51-350498
REM CASTEP 19.11| from code version Version unavailable
REM Functional Perdew Burke Ernzerhof Relativity Koelling-Harmon Dispersion off
REM Cut-off 300.0000 eV Grid scale 1.7500 Gmax 15.5288 1/A FBSC none
REM MP grid 3 3 3 Offset 0.000 0.000 0.000 No. kpts 6 Spacing 0.07
REM Total runtime: 2862.55 s
REM Overall efficiency: 95.5 %
REM
REM 4Ag2Se.cell (6404a18c6b5dc90313b5c56acf317f23)
REM
REM compiler GCC version 4.8.5 20150623 (Red Hat 4.8.5-39)
REM options -cpp -mtune=generic -march=x86-64 -g -Og
REM COMMAND_LINE
REM seed -728670174 -994279712 2073434787 -473349716 2019712267 -1848349589 1885295849 -1452280906 1943736370 -432147287 -484651737 258094410
REM
REM Se 3|2.1|7|7|9|40:41:32(qc=5)
REM Ag 3|2.2|7|7|9|40U:50:41:42(qc=5)
REM 
CELL 1.54180    6.27148    6.27148    6.27148   88.46102   88.46102   88.46102
LATT -1
SFAC Se Ag 
Se     1 -0.2642677613225 -0.2087948615871  0.2948153020606 1.0
Se     1 -0.2087948615871  0.2948153020606 -0.2642677613225 1.0
Se     1  0.2948153020606 -0.2642677613225 -0.2087948615871 1.0
Se     1  0.2663496125235  0.2663496125235  0.2663496125235 1.0
Ag     2 -0.0303948463224 -0.4792004480833  0.0535618812653 1.0
Ag     2 -0.4792004480833  0.0535618812653 -0.0303948463224 1.0
Ag     2  0.0535618812653 -0.0303948463224 -0.4792004480833 1.0
Ag     2 -0.3032027567373  0.2620327570569  0.3240326004786 1.0
Ag     2  0.2620327570569  0.3240326004786 -0.3032027567373 1.0
Ag     2  0.3240326004786 -0.3032027567373  0.2620327570569 1.0
Ag     2 -0.2775151812577 -0.2775151812577 -0.2775151812577 1.0
Ag     2  0.0111242019255  0.0111242019255  0.0111242019255 1.0
END
