TITL 4Ag2Se-200724-033647-dad053 -0.0185 248.748420 -4.61328960E+004 0 0 12 (P21) n - 1
REM
REM Run started: Fri, 24 Jul 2020 05:46:36 +0100 in /scratch/scratch/uccabz1/launch_tmp/launcher_2020-07-24-02-36-45-245227
REM CASTEP 19.11| from code version Version unavailable
REM Functional Perdew Burke Ernzerhof Relativity Koelling-Harmon Dispersion off
REM Cut-off 300.0000 eV Grid scale 1.7500 Gmax 15.5288 1/A FBSC none
REM MP grid 4 3 2 Offset 0.000 0.000 0.000 No. kpts 8 Spacing 0.07
REM Total runtime: 8810.45 s
REM Overall efficiency: 96.6 %
REM
REM 4Ag2Se.cell (6404a18c6b5dc90313b5c56acf317f23)
REM
REM compiler GCC version 4.9.2
REM options -cpp -iprefix /scratch/UCL/applications/gcc/4.9.2/bin/../lib/gcc/x86_64-unknown-linux-gnu/4.9.2/ -mtune=corei7 -march=x86-64 -g -O2
REM COMMAND_LINE
REM seed -1625751115 -1028550402 -1827912466 -932317879 687790388 -565507435 2125325381 -658696643 1622724782 54110393 1112082689 -1856201461
REM
REM Se 3|2.1|7|7|9|40:41:32(qc=5)
REM Ag 3|2.2|7|7|9|40U:50:41:42(qc=5)
REM 
CELL 1.54180    4.30957    6.48826    9.02026   90.00000   99.51824   90.00000
LATT -1
SFAC Se Ag 
Se     1  0.0878129652377  0.3302570680739 -0.1501969728564 1.0
Se     1 -0.0878129652377 -0.1697429319261  0.1501969728564 1.0
Se     1  0.2067789954411  0.3567840379885  0.4329358859037 1.0
Se     1 -0.2067789954411 -0.1432159620115 -0.4329358859037 1.0
Ag     2  0.4984066956947 -0.4218032409717  0.0024100506572 1.0
Ag     2 -0.4984066956947  0.0781967590283 -0.0024100506572 1.0
Ag     2  0.0656762448380  0.3268574659178  0.1434118636994 1.0
Ag     2 -0.0656762448380 -0.1731425340822 -0.1434118636994 1.0
Ag     2 -0.6360302193294 -0.3849095935297 -0.3224429380067 1.0
Ag     2  0.6360302193294  0.1150904064703  0.3224429380067 1.0
Ag     2 -0.6377234226154  0.0765718625213 -0.3282732595959 1.0
Ag     2  0.6377234226154 -0.4234281374787  0.3282732595959 1.0
END
