TITL 4Ag2Se-200724-032439-2a79bf 0.0010 243.461691 -4.61314526E+004 0 0 12 (R3) n - 1
REM
REM Run started: Fri, 24 Jul 2020 04:14:32 +0100 in /scratch/scratch/uccabz1/launch_tmp/launcher_2020-07-24-02-24-36-662583
REM CASTEP 19.11| from code version Version unavailable
REM Functional Perdew Burke Ernzerhof Relativity Koelling-Harmon Dispersion off
REM Cut-off 300.0000 eV Grid scale 1.7500 Gmax 15.5288 1/A FBSC none
REM MP grid 3 3 3 Offset 0.000 0.000 0.000 No. kpts 6 Spacing 0.07
REM Total runtime: 3036.67 s
REM Overall efficiency: 92.5 %
REM
REM 4Ag2Se.cell (6404a18c6b5dc90313b5c56acf317f23)
REM
REM compiler GCC version 4.9.2
REM options -cpp -iprefix /scratch/UCL/applications/gcc/4.9.2/bin/../lib/gcc/x86_64-unknown-linux-gnu/4.9.2/ -mtune=corei7 -march=x86-64 -g -O2
REM COMMAND_LINE
REM seed 1204167129 -2145765363 -1811572125 -745364578 674002133 -1778260283 567424028 1140695963 -195193335 2116791432 642971141 -307909510
REM
REM Se 3|2.1|7|7|9|40:41:32(qc=5)
REM Ag 3|2.2|7|7|9|40U:50:41:42(qc=5)
REM 
CELL 1.54180    7.33919    7.33919    6.72269   56.91713   56.91713   60.00000
LATT -1
SFAC Se Ag 
Se     1  0.3732567151507 -0.3568795445558  0.0508594805961 1.0
Se     1 -0.3568795445558 -0.0672366511910  0.0508594805961 1.0
Se     1 -0.0672366511910  0.3732567151507  0.0508594805961 1.0
Se     1  0.1552284903647  0.1552284903647 -0.4656854710942 1.0
Ag     2  0.1600857511380 -0.3180543293074 -0.2039761200256 1.0
Ag     2 -0.3180543293074  0.3619446981949 -0.2039761200256 1.0
Ag     2  0.3619446981949  0.1600857511380 -0.2039761200256 1.0
Ag     2  0.0430083025679 -0.4188159092550 -0.4750528478236 1.0
Ag     2 -0.4188159092550 -0.1491395454893 -0.4750528478236 1.0
Ag     2 -0.1491395454893  0.0430083025679 -0.4750528478236 1.0
Ag     2 -0.0233156540591 -0.0233156540591  0.0699469621772 1.0
Ag     2 -0.4649734902253 -0.4649734902253  0.3949204706758 1.0
END
