TITL 4Ag2Se-200724-033332-8c504c 0.0590 239.350018 -4.61325460E+004 0 0 12 (P21/c) n - 1
REM
REM Run started: Fri, 24 Jul 2020 05:35:06 +0100 in /rds/user/bz240/hpc-work/airss-fw/launch_tmp/launcher_2020-07-24-02-33-29-950506
REM CASTEP 19.11| from code version Version unavailable
REM Functional Perdew Burke Ernzerhof Relativity Koelling-Harmon Dispersion off
REM Cut-off 300.0000 eV Grid scale 1.7500 Gmax 15.5288 1/A FBSC none
REM MP grid 3 3 2 Offset 0.000 0.000 0.000 No. kpts 5 Spacing 0.07
REM Total runtime: 7967.68 s
REM Overall efficiency: 74.8333 %
REM
REM 4Ag2Se.cell (6404a18c6b5dc90313b5c56acf317f23)
REM
REM compiler GCC version 4.8.5 20150623 (Red Hat 4.8.5-39)
REM options -cpp -mtune=generic -march=x86-64 -g -Og
REM COMMAND_LINE
REM seed 280921528 -817711805 133325691 2100811503 205722011 -393618586 -282433431 515997733 664104177 -328046021 -1802545021 -2018706698
REM
REM Se 3|2.1|7|7|9|40:41:32(qc=5)
REM Ag 3|2.2|7|7|9|40U:50:41:42(qc=5)
REM 
CELL 1.54180    5.04127    6.61836    7.19666   90.00000   90.00000   94.57909
LATT -1
SFAC Se Ag 
Se     1 -0.0135958847807 -0.4378891391247  0.2902137116464 1.0
Se     1 -0.0135958847807  0.0621108608753 -0.2902137116464 1.0
Se     1 -0.4784823447340  0.5049084079461 -0.2112446102936 1.0
Se     1 -0.4784823447340  0.0049084079461  0.2112446102936 1.0
Ag     2 -0.4645820285252 -0.2680098415665 -0.5227430973600 1.0
Ag     2 -0.4645820285252  0.2319901584335  0.5227430973600 1.0
Ag     2 -0.0229166934863  0.3396801887057 -0.0260624876919 1.0
Ag     2 -0.0229166934863 -0.1603198112943  0.0260624876919 1.0
Ag     2  0.4722933751493 -0.5608982447772  0.1724732447909 1.0
Ag     2  0.4722933751493 -0.0608982447772 -0.1724732447909 1.0
Ag     2  0.0391092763769 -0.3648713711835 -0.3248989992108 1.0
Ag     2  0.0391092763769  0.1351286288165  0.3248989992108 1.0
END
