TITL 4Ag2Se_TETRA-200724-155846-49b681 0.0085 250.727112 -4.61319508E+004 0 0 12 (R3) n - 1
REM
REM Run started: Fri, 24 Jul 2020 16:54:13 +0100 in /rds/user/bz240/hpc-work/airss-fw/launch_tmp/launcher_2020-07-24-14-58-44-106427
REM CASTEP 19.11| from code version Version unavailable
REM Functional Perdew Burke Ernzerhof Relativity Koelling-Harmon Dispersion off
REM Cut-off 300.0000 eV Grid scale 1.7500 Gmax 15.5288 1/A FBSC none
REM MP grid 3 3 3 Offset 0.000 0.000 0.000 No. kpts 6 Spacing 0.07
REM Total runtime: 3656.06 s
REM Overall efficiency: 94.0833 %
REM
REM 4Ag2Se_TETRA.cell (4020362940262d3df87d4014b41eb05e)
REM
REM compiler GCC version 4.8.5 20150623 (Red Hat 4.8.5-39)
REM options -cpp -mtune=generic -march=x86-64 -g -Og
REM COMMAND_LINE
REM seed 1635149382 225794956 2122431963 -1771516687 -244283329 241659248 114562823 1715958059 321563597 1002978343 1018006615 2051558138
REM
REM Se 3|2.1|7|7|9|40:41:32(qc=5)
REM Ag 3|2.2|7|7|9|40U:50:41:42(qc=5)
REM 
CELL 1.54180    6.30575    6.30575    6.30575   89.79580   89.79580   89.79580
LATT -1
SFAC Se Ag 
Se     1 -0.2656357702903  0.2316014473861 -0.1811778166535 1.0
Se     1  0.2316014473861 -0.1811778166535 -0.2656357702903 1.0
Se     1 -0.1811778166535 -0.2656357702903  0.2316014473861 1.0
Se     1  0.2616910013840  0.2616910013840  0.2616910013840 1.0
Ag     2 -0.4895920322093  0.0454374477781 -0.4792166683105 1.0
Ag     2  0.0454374477781 -0.4792166683105 -0.4895920322093 1.0
Ag     2 -0.4792166683105 -0.4895920322093  0.0454374477781 1.0
Ag     2  0.1785236749994  0.2958536732269 -0.1481565631539 1.0
Ag     2  0.2958536732269 -0.1481565631539  0.1785236749994 1.0
Ag     2 -0.1481565631539  0.1785236749994  0.2958536732269 1.0
Ag     2 -0.2177509319261 -0.2177509319261 -0.2177509319261 1.0
Ag     2 -0.4731674622308 -0.4731674622308 -0.4731674622308 1.0
END
