TITL 4Ag2Se-200724-030949-d0db06 -0.0565 261.664786 -4.61316641E+004 0 0 12 (P3) n - 1
REM
REM Run started: Fri, 24 Jul 2020 04:40:04 +0100 in /scratch/scratch/uccabz1/launch_tmp/launcher_2020-07-24-02-09-47-801872
REM CASTEP 19.11| from code version Version unavailable
REM Functional Perdew Burke Ernzerhof Relativity Koelling-Harmon Dispersion off
REM Cut-off 300.0000 eV Grid scale 1.7500 Gmax 15.5288 1/A FBSC none
REM MP grid 3 3 3 Offset 0.000 0.000 0.000 No. kpts 8 Spacing 0.07
REM Total runtime: 5885.63 s
REM Overall efficiency: 96.2857 %
REM
REM 4Ag2Se.cell (6404a18c6b5dc90313b5c56acf317f23)
REM
REM compiler GCC version 4.9.2
REM options -cpp -iprefix /scratch/UCL/applications/gcc/4.9.2/bin/../lib/gcc/x86_64-unknown-linux-gnu/4.9.2/ -mtune=corei7 -march=x86-64 -g -O2
REM COMMAND_LINE
REM seed -146412999 -1595377320 -438047739 -1458208222 198711148 1983469159 603938350 -592167094 1722227346 725502913 1725728267 -1713263794
REM
REM Se 3|2.1|7|7|9|40:41:32(qc=5)
REM Ag 3|2.2|7|7|9|40U:50:41:42(qc=5)
REM 
CELL 1.54180    5.75296    7.24705    7.24705  120.00000   90.00000   90.00000
LATT -1
SFAC Se Ag 
Se     1  0.4855493148917  0.0289895817631 -0.3604603617090 1.0
Se     1  0.4855493148917  0.3604603617090  0.3894498434721 1.0
Se     1  0.4855493148917 -0.3894498434721 -0.0289895817631 1.0
Se     1  0.0149012947646  0.0000000333333 -0.0000000333333 1.0
Ag     2  0.0574644066329 -0.3187105796303  0.1081442448909 1.0
Ag     2  0.0574644066329 -0.1081442448909 -0.4268549245212 1.0
Ag     2  0.0574644066329  0.4268549245212  0.3187105796303 1.0
Ag     2 -0.2200503666415 -0.3640077498641 -0.2983715821882 1.0
Ag     2 -0.2200503666415  0.2983715821882 -0.0656362676759 1.0
Ag     2 -0.2200503666415  0.0656362676759  0.3640077498641 1.0
Ag     2 -0.5174340537262  0.0000000333333 -0.0000000333333 1.0
Ag     2 -0.3464300056879 -0.3333333000000  0.3333333000000 1.0
END
