TITL 4Ag2Se-200724-060400-41bd1b -0.0033 232.156486 -4.61316711E+004 0 0 12 (P42212) n - 1
REM
REM Run started: Fri, 24 Jul 2020 06:26:51 +0100 in /rds/user/bz240/hpc-work/airss-fw/launch_tmp/launcher_2020-07-24-05-03-58-104367
REM CASTEP 19.11| from code version Version unavailable
REM Functional Perdew Burke Ernzerhof Relativity Koelling-Harmon Dispersion off
REM Cut-off 300.0000 eV Grid scale 1.7500 Gmax 15.5288 1/A FBSC none
REM MP grid 3 3 2 Offset 0.000 0.000 0.000 No. kpts 3 Spacing 0.07
REM Total runtime: 1459.31 s
REM Overall efficiency: 93.1667 %
REM
REM 4Ag2Se.cell (6404a18c6b5dc90313b5c56acf317f23)
REM
REM compiler GCC version 4.8.5 20150623 (Red Hat 4.8.5-39)
REM options -cpp -mtune=generic -march=x86-64 -g -Og
REM COMMAND_LINE
REM seed -1321915250 -1432036386 -1829991922 1923068534 46798216 -248786599 -1247273532 -1231552887 1760347908 1453851934 1502566302 1326536735
REM
REM Se 3|2.1|7|7|9|40:41:32(qc=5)
REM Ag 3|2.2|7|7|9|40U:50:41:42(qc=5)
REM 
CELL 1.54180    5.33470    5.33470    8.15756   90.00000   90.00000   90.00000
LATT -1
SFAC Se Ag 
Se     1 -0.2577454010527  0.2422545989473  0.4553098000000 1.0
Se     1  0.2577454010527 -0.2422545989473  0.4553098000000 1.0
Se     1 -0.2422545989473 -0.2577454010527 -0.0446902000000 1.0
Se     1  0.2422545989473  0.2577454010527 -0.0446902000000 1.0
Ag     2  0.2268914685416 -0.2060893644724  0.1249378203970 1.0
Ag     2 -0.2268914685416  0.2060893644724  0.1249378203970 1.0
Ag     2  0.2060893644724  0.2268914685416 -0.3750621796030 1.0
Ag     2 -0.2060893644724 -0.2268914685416 -0.3750621796030 1.0
Ag     2 -0.2731085314584 -0.2939106355276  0.2856817796030 1.0
Ag     2  0.2731085314584  0.2939106355276  0.2856817796030 1.0
Ag     2  0.2939106355276 -0.2731085314584 -0.2143182203970 1.0
Ag     2 -0.2939106355276  0.2731085314584 -0.2143182203970 1.0
END
