TITL 4Ag2Se_TETRA-200724-154145-055626 0.3074 248.434219 -4.61303160E+004 0 0 12 (Pmna) n - 1
REM
REM Run started: Fri, 24 Jul 2020 16:02:10 +0100 in /rds/user/bz240/hpc-work/airss-fw/launch_tmp/launcher_2020-07-24-14-41-43-300642
REM CASTEP 19.11| from code version Version unavailable
REM Functional Perdew Burke Ernzerhof Relativity Koelling-Harmon Dispersion off
REM Cut-off 300.0000 eV Grid scale 1.7500 Gmax 15.5288 1/A FBSC none
REM MP grid 4 2 3 Offset 0.000 0.000 0.000 No. kpts 4 Spacing 0.07
REM Total runtime: 1454.22 s
REM Overall efficiency: 79.9167 %
REM
REM 4Ag2Se_TETRA.cell (4020362940262d3df87d4014b41eb05e)
REM
REM compiler GCC version 4.8.5 20150623 (Red Hat 4.8.5-39)
REM options -cpp -mtune=generic -march=x86-64 -g -Og
REM COMMAND_LINE
REM seed 2116756893 -675644590 1767545548 -505007491 -529291526 -230781860 885667601 -2024426372 1054179856 1002005320 93955279 -1101809132
REM
REM Se 3|2.1|7|7|9|40:41:32(qc=5)
REM Ag 3|2.2|7|7|9|40U:50:41:42(qc=5)
REM 
CELL 1.54180    4.71764    7.37156    7.14377   90.00000   90.00000   90.00000
LATT -1
SFAC Se Ag 
Se     1 -0.2500000000000  0.2500000000000  0.2500000000000 1.0
Se     1  0.2500000000000 -0.2500000000000 -0.2500000000000 1.0
Se     1 -0.2500000000000  0.2500000000000 -0.2500000000000 1.0
Se     1  0.2500000000000 -0.2500000000000  0.2500000000000 1.0
Ag     2 -0.2500000000000 -0.1014660615600  0.3850422473857 1.0
Ag     2  0.2500000000000  0.3985339384400 -0.3850422473857 1.0
Ag     2 -0.2500000000000 -0.3985339384400 -0.3850422473857 1.0
Ag     2  0.2500000000000  0.1014660615600  0.3850422473857 1.0
Ag     2  0.2500000000000  0.1014660615600 -0.1149577526143 1.0
Ag     2 -0.2500000000000 -0.3985339384400  0.1149577526143 1.0
Ag     2  0.2500000000000  0.3985339384400  0.1149577526143 1.0
Ag     2 -0.2500000000000 -0.1014660615600 -0.1149577526143 1.0
END
