TITL 4Ag2Se-200724-072834-ced521 0.0081 264.991314 -4.61325205E+004 0 0 12 (P-1) n - 1
REM
REM Run started: Fri, 24 Jul 2020 09:51:15 +0100 in /scratch/scratch/uccabz1/launch_tmp/launcher_2020-07-24-06-28-32-714918
REM CASTEP 19.11| from code version Version unavailable
REM Functional Perdew Burke Ernzerhof Relativity Koelling-Harmon Dispersion off
REM Cut-off 300.0000 eV Grid scale 1.7500 Gmax 15.5288 1/A FBSC none
REM MP grid 4 2 2 Offset 0.000 0.000 0.000 No. kpts 8 Spacing 0.07
REM Total runtime: 9795.99 s
REM Overall efficiency: 96.5556 %
REM
REM 4Ag2Se.cell (6404a18c6b5dc90313b5c56acf317f23)
REM
REM compiler GCC version 4.9.2
REM options -cpp -iprefix /scratch/UCL/applications/gcc/4.9.2/bin/../lib/gcc/x86_64-unknown-linux-gnu/4.9.2/ -mtune=corei7 -march=x86-64 -g -O2
REM COMMAND_LINE
REM seed -1136625455 77929239 -1353668474 1311339362 1870060891 2080820306 321757319 1374532525 1461635805 456659572 -1692150933 1391637862
REM
REM Se 3|2.1|7|7|9|40:41:32(qc=5)
REM Ag 3|2.2|7|7|9|40U:50:41:42(qc=5)
REM 
CELL 1.54180    4.34224    7.92907    8.10501   93.47621   92.91850  107.47097
LATT -1
SFAC Se Ag 
Se     1 -0.4173198973392  0.1914533820298  0.1651672912372 1.0
Se     1  0.4173198973392 -0.1914533820298 -0.1651672912372 1.0
Se     1  0.0116981941481  0.1571110538599 -0.3383093590180 1.0
Se     1 -0.0116981941481 -0.1571110538599  0.3383093590180 1.0
Ag     2  0.2106670035263  0.4888881849165 -0.2876468801847 1.0
Ag     2 -0.2106670035263 -0.4888881849165  0.2876468801847 1.0
Ag     2  0.1760078586191  0.3751063269701  0.0453343149721 1.0
Ag     2 -0.1760078586191 -0.3751063269701 -0.0453343149721 1.0
Ag     2 -0.4301171162809  0.2316014852281 -0.1662144803448 1.0
Ag     2  0.4301171162809 -0.2316014852281  0.1662144803448 1.0
Ag     2  0.1691879408675  0.2656378446590  0.3780090600173 1.0
Ag     2 -0.1691879408675 -0.2656378446590 -0.3780090600173 1.0
END
