TITL 4Ag2Se-200724-052341-659df5 0.0283 240.435007 -4.61325633E+004 0 0 12 (Pc) n - 1
REM
REM Run started: Fri, 24 Jul 2020 07:01:44 +0100 in /scratch/scratch/uccabz1/launch_tmp/launcher_2020-07-24-04-23-38-897839
REM CASTEP 19.11| from code version Version unavailable
REM Functional Perdew Burke Ernzerhof Relativity Koelling-Harmon Dispersion off
REM Cut-off 300.0000 eV Grid scale 1.7500 Gmax 15.5288 1/A FBSC none
REM MP grid 3 3 3 Offset 0.000 0.000 0.000 No. kpts 10 Spacing 0.07
REM Total runtime: 5923.98 s
REM Overall efficiency: 94 %
REM
REM 4Ag2Se.cell (6404a18c6b5dc90313b5c56acf317f23)
REM
REM compiler GCC version 4.9.2
REM options -cpp -iprefix /scratch/UCL/applications/gcc/4.9.2/bin/../lib/gcc/x86_64-unknown-linux-gnu/4.9.2/ -mtune=corei7 -march=x86-64 -g -O2
REM COMMAND_LINE
REM seed -1797081695 1392268785 2046715727 -222543958 -1134703837 -1389627264 1368735800 702847365 1493112900 -515985459 459112946 1053129507
REM
REM Se 3|2.1|7|7|9|40:41:32(qc=5)
REM Ag 3|2.2|7|7|9|40U:50:41:42(qc=5)
REM 
CELL 1.54180    5.17491    6.65601    6.98873   92.79564   90.00000   90.00000
LATT -1
SFAC Se Ag 
Se     1 -0.2355536528019 -0.1395782576912 -0.1478728195513 1.0
Se     1  0.2355536528019 -0.1395782576912  0.3521271804487 1.0
Se     1 -0.3163963148215  0.3945342296436  0.4323770136628 1.0
Se     1  0.3163963148215  0.3945342296436 -0.0676229863372 1.0
Ag     2 -0.1561808075245  0.2609562800775 -0.2201953047116 1.0
Ag     2  0.1561808075245  0.2609562800775  0.2798046952884 1.0
Ag     2 -0.3385072500320  0.1059758945727  0.1509691412831 1.0
Ag     2  0.3385072500320  0.1059758945727 -0.3490308587169 1.0
Ag     2  0.2644755567165 -0.1773701563543 -0.0443161899598 1.0
Ag     2 -0.2644755567165 -0.1773701563543  0.4556838100402 1.0
Ag     2  0.1740222636004 -0.4380153902483 -0.3981621407232 1.0
Ag     2 -0.1740222636004 -0.4380153902483  0.1018378592768 1.0
END
