TITL 4Ag2Se-200724-062618-3a0894 -0.0542 253.936372 -4.61326664E+004 0 0 12 (P21) n - 1
REM
REM Run started: Fri, 24 Jul 2020 08:28:02 +0100 in /rds/user/bz240/hpc-work/airss-fw/launch_tmp/launcher_2020-07-24-05-26-16-224633
REM CASTEP 19.11| from code version Version unavailable
REM Functional Perdew Burke Ernzerhof Relativity Koelling-Harmon Dispersion off
REM Cut-off 300.0000 eV Grid scale 1.7500 Gmax 15.5288 1/A FBSC none
REM MP grid 4 3 2 Offset 0.000 0.000 0.000 No. kpts 8 Spacing 0.07
REM Total runtime: 7473.83 s
REM Overall efficiency: 95.8 %
REM
REM 4Ag2Se.cell (6404a18c6b5dc90313b5c56acf317f23)
REM
REM compiler GCC version 4.8.5 20150623 (Red Hat 4.8.5-39)
REM options -cpp -mtune=generic -march=x86-64 -g -Og
REM COMMAND_LINE
REM seed 1031061671 -613733296 -1505819768 -924642129 1330429642 -389016739 -1369457892 822509458 1374206786 -425346327 269629449 -1348075616
REM
REM Se 3|2.1|7|7|9|40:41:32(qc=5)
REM Ag 3|2.2|7|7|9|40U:50:41:42(qc=5)
REM 
CELL 1.54180    4.18409    6.91026    8.86077   90.00000   97.61055   90.00000
LATT -1
SFAC Se Ag 
Se     1  0.2228084264053  0.3495331702110  0.3609021183501 1.0
Se     1 -0.2228084264053 -0.1504668297890 -0.3609021183501 1.0
Se     1  0.2937651491072  0.3143854715158 -0.1173251720668 1.0
Se     1 -0.2937651491072 -0.1856145284842  0.1173251720668 1.0
Ag     2 -0.1806224369566 -0.4342563165361 -0.1284483336073 1.0
Ag     2  0.1806224369566  0.0657436834639  0.1284483336073 1.0
Ag     2  0.7298938163714  0.0635931465456  0.3717044806504 1.0
Ag     2 -0.7298938163714 -0.4364068534544 -0.3717044806504 1.0
Ag     2 -0.3059546871071  0.3733720571694  0.1389365557355 1.0
Ag     2  0.3059546871071 -0.1266279428306 -0.1389365557355 1.0
Ag     2  0.7053225947544 -0.3623253289056  0.3888515520888 1.0
Ag     2 -0.7053225947544  0.1376746710944 -0.3888515520888 1.0
END
