TITL 4Ag2Se-200724-075607-e2bed4 -0.0695 253.754965 -4.61324900E+004 0 0 12 (R3) n - 1
REM
REM Run started: Fri, 24 Jul 2020 08:37:31 +0100 in /scratch/scratch/uccabz1/launch_tmp/launcher_2020-07-24-06-56-05-911249
REM CASTEP 19.11| from code version Version unavailable
REM Functional Perdew Burke Ernzerhof Relativity Koelling-Harmon Dispersion off
REM Cut-off 300.0000 eV Grid scale 1.7500 Gmax 15.5288 1/A FBSC none
REM MP grid 3 3 3 Offset 0.000 0.000 0.000 No. kpts 6 Spacing 0.07
REM Total runtime: 2666.78 s
REM Overall efficiency: 93.7143 %
REM
REM 4Ag2Se.cell (6404a18c6b5dc90313b5c56acf317f23)
REM
REM compiler GCC version 4.9.2
REM options -cpp -iprefix /scratch/UCL/applications/gcc/4.9.2/bin/../lib/gcc/x86_64-unknown-linux-gnu/4.9.2/ -mtune=corei7 -march=x86-64 -g -O2
REM COMMAND_LINE
REM seed 536010006 -1165927039 -2018946550 2094616931 721563289 299342793 595531629 -829261869 1737890230 -2112947234 -2143487056 -1452817277
REM
REM Se 3|2.1|7|7|9|40:41:32(qc=5)
REM Ag 3|2.2|7|7|9|40U:50:41:42(qc=5)
REM 
CELL 1.54180    6.33234    6.33234    6.33234   91.17586   91.17586   91.17586
LATT -1
SFAC Se Ag 
Se     1  0.0497931846595 -0.4563962532116  0.0781500363723 1.0
Se     1  0.0781500363723  0.0497931846595 -0.4563962532116 1.0
Se     1 -0.4563962532116  0.0781500363723  0.0497931846595 1.0
Se     1 -0.4933274647047 -0.4933274647047 -0.4933274647047 1.0
Ag     2  0.1166522746601  0.4620597535717 -0.3393701369491 1.0
Ag     2 -0.3393701369491  0.1166522746601  0.4620597535717 1.0
Ag     2  0.4620597535717 -0.3393701369491  0.1166522746601 1.0
Ag     2  0.3863642963840 -0.1577423639216 -0.2770895280639 1.0
Ag     2 -0.2770895280639  0.3863642963840 -0.1577423639216 1.0
Ag     2 -0.1577423639216 -0.2770895280639  0.3863642963840 1.0
Ag     2 -0.1593628621036 -0.1593628621036 -0.1593628621036 1.0
Ag     2  0.1202075633069  0.1202075633069  0.1202075633069 1.0
END
