TITL 4Ag2Se_TETRA-200724-125249-c77e5a -0.0222 252.383205 -4.61312867E+004 0 0 12 (C2/c) n - 1
REM
REM Run started: Fri, 24 Jul 2020 13:47:41 +0100 in /scratch/scratch/uccabz1/launch_tmp/launcher_2020-07-24-11-52-47-640484
REM CASTEP 19.11| from code version Version unavailable
REM Functional Perdew Burke Ernzerhof Relativity Koelling-Harmon Dispersion off
REM Cut-off 300.0000 eV Grid scale 1.7500 Gmax 15.5288 1/A FBSC none
REM MP grid 3 3 2 Offset 0.000 0.000 0.000 No. kpts 6 Spacing 0.07
REM Total runtime: 3666.62 s
REM Overall efficiency: 93.5833 %
REM
REM 4Ag2Se_TETRA.cell (4020362940262d3df87d4014b41eb05e)
REM
REM compiler GCC version 4.9.2
REM options -cpp -iprefix /scratch/UCL/applications/gcc/4.9.2/bin/../lib/gcc/x86_64-unknown-linux-gnu/4.9.2/ -mtune=corei7 -march=x86-64 -g -O2
REM COMMAND_LINE
REM seed -1847799370 -409187553 -1584066238 1709896351 554687306 898049807 1424576534 1035587152 -95448146 199942096 -819449706 -2051038713
REM
REM Se 3|2.1|7|7|9|40:41:32(qc=5)
REM Ag 3|2.2|7|7|9|40U:50:41:42(qc=5)
REM 
CELL 1.54180    5.06011    5.06011   10.72789   73.66778   73.66778   81.87137
LATT -1
SFAC Se Ag 
Se     1  0.1564473048076 -0.3377990272590 -0.3929413341469 1.0
Se     1  0.3377990272590 -0.1564473048076 -0.1070586658531 1.0
Se     1 -0.1564473048076  0.3377990272590  0.3929413341469 1.0
Se     1 -0.3377990272590  0.1564473048076  0.1070586658531 1.0
Ag     2  0.1168399239838 -0.3236708378405  0.1691109104613 1.0
Ag     2  0.3236708378405 -0.1168399239838  0.3308890895387 1.0
Ag     2 -0.1168399239838  0.3236708378405 -0.1691109104613 1.0
Ag     2 -0.3236708378405  0.1168399239838 -0.3308890895387 1.0
Ag     2 -0.2855423069614 -0.2218925846123 -0.5026693027703 1.0
Ag     2  0.2218925846123  0.2855423069614  0.0026693027703 1.0
Ag     2  0.2855423069614  0.2218925846123  0.5026693027703 1.0
Ag     2 -0.2218925846123 -0.2855423069614 -0.0026693027703 1.0
END
