TITL 4Ag2Se-200724-090550-c61c71 -0.0203 227.016577 -4.61326444E+004 0 0 12 (Ama2) n - 1
REM
REM Run started: Fri, 24 Jul 2020 09:35:44 +0100 in /rds/user/bz240/hpc-work/airss-fw/launch_tmp/launcher_2020-07-24-08-05-48-288147
REM CASTEP 19.11| from code version Version unavailable
REM Functional Perdew Burke Ernzerhof Relativity Koelling-Harmon Dispersion off
REM Cut-off 300.0000 eV Grid scale 1.7500 Gmax 15.5288 1/A FBSC none
REM MP grid 4 4 2 Offset 0.000 0.000 0.000 No. kpts 4 Spacing 0.07
REM Total runtime: 1855.36 s
REM Overall efficiency: 92.1429 %
REM
REM 4Ag2Se.cell (6404a18c6b5dc90313b5c56acf317f23)
REM
REM compiler GCC version 4.8.5 20150623 (Red Hat 4.8.5-39)
REM options -cpp -mtune=generic -march=x86-64 -g -Og
REM COMMAND_LINE
REM seed 2119522843 -2131496114 -387608299 -1074609326 -125701449 1709618345 400549190 -214093663 -690610354 -819111418 -1464403982 1596134575
REM
REM Se 3|2.1|7|7|9|40:41:32(qc=5)
REM Ag 3|2.2|7|7|9|40U:50:41:42(qc=5)
REM 
CELL 1.54180    4.15851    4.03780   13.51994   90.00000   90.00000   90.00000
LATT -1
SFAC Se Ag 
Se     1 -0.2500000000000  0.1767329700491  0.3950177884018 1.0
Se     1  0.2500000000000  0.1767329700491 -0.3950177884018 1.0
Se     1  0.2500000000000 -0.3232670299509  0.1049822115982 1.0
Se     1 -0.2500000000000 -0.3232670299509 -0.1049822115982 1.0
Ag     2  0.2500000000000 -0.3147181353145  0.4226769193895 1.0
Ag     2 -0.2500000000000 -0.3147181353145 -0.4226769193895 1.0
Ag     2 -0.2500000000000  0.1852818646855  0.0773230806105 1.0
Ag     2  0.2500000000000  0.1852818646855 -0.0773230806105 1.0
Ag     2  0.2500000000000  0.1956385652654  0.2552737933029 1.0
Ag     2 -0.2500000000000  0.1956385652654 -0.2552737933029 1.0
Ag     2 -0.2500000000000 -0.3043614347346  0.2447262066971 1.0
Ag     2  0.2500000000000 -0.3043614347346 -0.2447262066971 1.0
END
