TITL 4Ag2Se_TETRA-200724-161113-4148e2 -0.0225 247.011380 -4.61321775E+004 0 0 12 (R3) n - 1
REM
REM Run started: Fri, 24 Jul 2020 16:57:36 +0100 in /scratch/scratch/uccabz1/launch_tmp/launcher_2020-07-24-15-11-11-208174
REM CASTEP 19.11| from code version Version unavailable
REM Functional Perdew Burke Ernzerhof Relativity Koelling-Harmon Dispersion off
REM Cut-off 300.0000 eV Grid scale 1.7500 Gmax 15.5288 1/A FBSC none
REM MP grid 3 3 3 Offset 0.000 0.000 0.000 No. kpts 6 Spacing 0.07
REM Total runtime: 3072.06 s
REM Overall efficiency: 92.25 %
REM
REM 4Ag2Se_TETRA.cell (4020362940262d3df87d4014b41eb05e)
REM
REM compiler GCC version 4.9.2
REM options -cpp -iprefix /scratch/UCL/applications/gcc/4.9.2/bin/../lib/gcc/x86_64-unknown-linux-gnu/4.9.2/ -mtune=corei7 -march=x86-64 -g -O2
REM COMMAND_LINE
REM seed -1665355626 -1281655286 686607137 -192235658 -34890943 -1627645922 260265394 165633522 2103460509 797503354 -1539795748 -726266510
REM
REM Se 3|2.1|7|7|9|40:41:32(qc=5)
REM Ag 3|2.2|7|7|9|40U:50:41:42(qc=5)
REM 
CELL 1.54180    6.31969    6.31969    6.31969   96.56729   96.56729   96.56729
LATT -1
SFAC Se Ag 
Se     1 -0.1451366242100  0.3355080602920  0.2952123373671 1.0
Se     1  0.3355080602920  0.2952123373671 -0.1451366242100 1.0
Se     1  0.2952123373671 -0.1451366242100  0.3355080602920 1.0
Se     1 -0.2307648128682 -0.2307648128682 -0.2307648128682 1.0
Ag     2  0.3279693282894 -0.3258131989216 -0.2979993919474 1.0
Ag     2 -0.3258131989216 -0.2979993919474  0.3279693282894 1.0
Ag     2 -0.2979993919474  0.3279693282894 -0.3258131989216 1.0
Ag     2 -0.4391786272256  0.0018934667254  0.0493667100154 1.0
Ag     2  0.0018934667254  0.0493667100154 -0.4391786272256 1.0
Ag     2  0.0493667100154 -0.4391786272256  0.0018934667254 1.0
Ag     2  0.3419034616941  0.3419034616941  0.3419034616941 1.0
Ag     2  0.0439471907894  0.0439471907894  0.0439471907894 1.0
END
