TITL 4Ag2Se_TETRA-200724-173235-b4e7ab -0.0450 249.663368 -4.61309330E+004 0 0 12 (P21) n - 1
REM
REM Run started: Fri, 24 Jul 2020 18:29:59 +0100 in /scratch/scratch/uccabz1/launch_tmp/launcher_2020-07-24-16-32-33-252162
REM CASTEP 19.11| from code version Version unavailable
REM Functional Perdew Burke Ernzerhof Relativity Koelling-Harmon Dispersion off
REM Cut-off 300.0000 eV Grid scale 1.7500 Gmax 15.5288 1/A FBSC none
REM MP grid 3 3 2 Offset 0.000 0.000 0.000 No. kpts 6 Spacing 0.07
REM Total runtime: 3822.29 s
REM Overall efficiency: 94.25 %
REM
REM 4Ag2Se_TETRA.cell (4020362940262d3df87d4014b41eb05e)
REM
REM compiler GCC version 4.9.2
REM options -cpp -iprefix /scratch/UCL/applications/gcc/4.9.2/bin/../lib/gcc/x86_64-unknown-linux-gnu/4.9.2/ -mtune=corei7 -march=x86-64 -g -O2
REM COMMAND_LINE
REM seed 1776414985 1253300344 55445098 -1092444906 1982632627 364300802 134884679 -1115043540 -1805600323 -343450460 33355143 -2025427673
REM
REM Se 3|2.1|7|7|9|40:41:32(qc=5)
REM Ag 3|2.2|7|7|9|40U:50:41:42(qc=5)
REM 
CELL 1.54180    5.23420    5.49739    8.67752   90.85220   90.00000   90.00000
LATT -1
SFAC Se Ag 
Se     1 -0.0480694337164 -0.2220622568350 -0.3225164741307 1.0
Se     1  0.4519305662836  0.2220622568350  0.3225164741307 1.0
Se     1  0.4484353917247 -0.2611275867396 -0.0388483204193 1.0
Se     1 -0.0515646082753  0.2611275867396  0.0388483204193 1.0
Ag     2 -0.3543289908284  0.4290366150793 -0.4299019587129 1.0
Ag     2  0.1456710091716 -0.4290366150793  0.4299019587129 1.0
Ag     2 -0.3983335510920 -0.3110149978111  0.2499573267482 1.0
Ag     2  0.1016664489080  0.3110149978111 -0.2499573267482 1.0
Ag     2  0.4937832415770 -0.0810176550095 -0.4408198598091 1.0
Ag     2 -0.0062167584230  0.0810176550095  0.4408198598091 1.0
Ag     2  0.0903848423351 -0.1523109949412  0.1571562520234 1.0
Ag     2 -0.4096151576649  0.1523109949412 -0.1571562520234 1.0
END
