TITL 4Ag2Se_TETRA-200724-123124-11468d -0.0260 245.001262 -4.61304492E+004 0 0 12 (P2/c) n - 1
REM
REM Run started: Fri, 24 Jul 2020 13:29:24 +0100 in /scratch/scratch/uccabz1/launch_tmp/launcher_2020-07-24-11-31-21-720271
REM CASTEP 19.11| from code version Version unavailable
REM Functional Perdew Burke Ernzerhof Relativity Koelling-Harmon Dispersion off
REM Cut-off 300.0000 eV Grid scale 1.7500 Gmax 15.5288 1/A FBSC none
REM MP grid 3 3 2 Offset 0.000 0.000 0.000 No. kpts 5 Spacing 0.07
REM Total runtime: 3860.13 s
REM Overall efficiency: 93.4167 %
REM
REM 4Ag2Se_TETRA.cell (4020362940262d3df87d4014b41eb05e)
REM
REM compiler GCC version 4.9.2
REM options -cpp -iprefix /scratch/UCL/applications/gcc/4.9.2/bin/../lib/gcc/x86_64-unknown-linux-gnu/4.9.2/ -mtune=corei7 -march=x86-64 -g -O2
REM COMMAND_LINE
REM seed 1842207368 -779702489 -1468282926 2048562088 -12825629 492474237 -723266029 -76228567 -1592368885 -359530127 1000476565 -1640988062
REM
REM Se 3|2.1|7|7|9|40:41:32(qc=5)
REM Ag 3|2.2|7|7|9|40U:50:41:42(qc=5)
REM 
CELL 1.54180    5.14271    5.47265    8.70528   90.00000   90.00000   89.74895
LATT -1
SFAC Se Ag 
Se     1  0.4943230956771 -0.2384904176619 -0.3458162612002 1.0
Se     1  0.0056769043229  0.2384904176619 -0.3458162612002 1.0
Se     1 -0.4943230956771  0.2384904176619  0.3458162612002 1.0
Se     1 -0.0056769043229 -0.2384904176619  0.3458162612002 1.0
Ag     2  0.4948701957088 -0.2755895614590  0.2785570231529 1.0
Ag     2  0.0051298042912  0.2755895614590  0.2785570231529 1.0
Ag     2 -0.4948701957088  0.2755895614590 -0.2785570231529 1.0
Ag     2 -0.0051298042912 -0.2755895614590 -0.2785570231529 1.0
Ag     2  0.0192707153445 -0.2441384535471  0.0484885696255 1.0
Ag     2  0.4807292846555  0.2441384535471  0.0484885696255 1.0
Ag     2 -0.0192707153445  0.2441384535471 -0.0484885696255 1.0
Ag     2 -0.4807292846555 -0.2441384535471 -0.0484885696255 1.0
END
