TITL 4Ag2Se-200724-061032-df593b -0.0551 257.289518 -4.61323977E+004 0 0 12 (P213) n - 1
REM
REM Run started: Fri, 24 Jul 2020 06:21:05 +0100 in /rds/user/bz240/hpc-work/airss-fw/launch_tmp/launcher_2020-07-24-05-10-31-191171
REM CASTEP 19.11| from code version Version unavailable
REM Functional Perdew Burke Ernzerhof Relativity Koelling-Harmon Dispersion off
REM Cut-off 300.0000 eV Grid scale 1.7500 Gmax 15.5288 1/A FBSC none
REM MP grid 3 3 3 Offset 0.000 0.000 0.000 No. kpts 4 Spacing 0.07
REM Total runtime: 690.61 s
REM Overall efficiency: 92 %
REM
REM 4Ag2Se.cell (6404a18c6b5dc90313b5c56acf317f23)
REM
REM compiler GCC version 4.8.5 20150623 (Red Hat 4.8.5-39)
REM options -cpp -mtune=generic -march=x86-64 -g -Og
REM COMMAND_LINE
REM seed -335884898 860985267 1235744388 1148040506 1846362101 -1627576059 1712465231 209903988 1663144383 606200927 -1586253306 1299061432
REM
REM Se 3|2.1|7|7|9|40:41:32(qc=5)
REM Ag 3|2.2|7|7|9|40U:50:41:42(qc=5)
REM 
CELL 1.54180    6.36025    6.36025    6.36025   90.00370   90.00370   90.00370
LATT -1
SFAC Se Ag 
Se     1 -0.3328102657507  0.0831693657507 -0.4168306342493 1.0
Se     1  0.0831693657507 -0.4168306342493 -0.3328102657507 1.0
Se     1 -0.4168306342493 -0.3328102657507  0.0831693657507 1.0
Se     1  0.1671897342493  0.1671897342493  0.1671897342493 1.0
Ag     2  0.3211581504919 -0.1788418495081  0.4292009495081 1.0
Ag     2 -0.1788418495081  0.4292009495081  0.3211581504919 1.0
Ag     2  0.4292009495081  0.3211581504919 -0.1788418495081 1.0
Ag     2  0.0860193318448  0.1643397681552 -0.4139806681552 1.0
Ag     2  0.1643397681552 -0.4139806681552  0.0860193318448 1.0
Ag     2 -0.4139806681552  0.0860193318448  0.1643397681552 1.0
Ag     2 -0.3356602318448 -0.3356602318448 -0.3356602318448 1.0
Ag     2 -0.0707990504919 -0.0707990504919 -0.0707990504919 1.0
END
