TITL 4Ag2Se_TETRA-200724-182511-1c2df3 -0.0104 255.577853 -4.61307954E+004 0 0 12 (C2) n - 1
REM
REM Run started: Fri, 24 Jul 2020 19:38:36 +0100 in /scratch/scratch/uccabz1/launch_tmp/launcher_2020-07-24-17-25-09-150751
REM CASTEP 19.11| from code version Version unavailable
REM Functional Perdew Burke Ernzerhof Relativity Koelling-Harmon Dispersion off
REM Cut-off 300.0000 eV Grid scale 1.7500 Gmax 15.5288 1/A FBSC none
REM MP grid 3 3 3 Offset 0.000 0.000 0.000 No. kpts 10 Spacing 0.07
REM Total runtime: 4884.07 s
REM Overall efficiency: 95.4167 %
REM
REM 4Ag2Se_TETRA.cell (4020362940262d3df87d4014b41eb05e)
REM
REM compiler GCC version 4.9.2
REM options -cpp -iprefix /scratch/UCL/applications/gcc/4.9.2/bin/../lib/gcc/x86_64-unknown-linux-gnu/4.9.2/ -mtune=corei7 -march=x86-64 -g -O2
REM COMMAND_LINE
REM seed -1074549973 926641979 1467658314 38411082 -49799547 -1017178661 1363384664 812038217 -1651966021 607414295 1415383709 -1462950294
REM
REM Se 3|2.1|7|7|9|40:41:32(qc=5)
REM Ag 3|2.2|7|7|9|40U:50:41:42(qc=5)
REM 
CELL 1.54180    6.25509    6.55211    6.25509   90.45772   94.42156   90.45772
LATT -1
SFAC Se Ag 
Se     1 -0.4210365897580 -0.4654812704030 -0.0249889754076 1.0
Se     1  0.0249889754076  0.4654812704030  0.4210365897580 1.0
Se     1 -0.1405117897540 -0.0378281482678 -0.3189483196752 1.0
Se     1  0.3189483196752  0.0378281482678  0.1405117897540 1.0
Ag     2 -0.3034664095255  0.2086698631841  0.1969381567200 1.0
Ag     2 -0.1969381567200 -0.2086698631841  0.3034664095255 1.0
Ag     2  0.4782531066975 -0.1163140889616 -0.2006337738603 1.0
Ag     2  0.2006337738603  0.1163140889616 -0.4782531066975 1.0
Ag     2 -0.3830965766777  0.2989464894606 -0.3602163324184 1.0
Ag     2  0.3602163324184 -0.2989464894606  0.3830965766777 1.0
Ag     2  0.0399590875611  0.2873652110635 -0.0807479268152 1.0
Ag     2  0.0807479268152 -0.2873652110635 -0.0399590875611 1.0
END
