TITL 4Ag2Se-200724-063805-72289e 0.0172 280.698273 -4.61321566E+004 0 0 12 (Fdd2) n - 1
REM
REM Run started: Fri, 24 Jul 2020 08:23:49 +0100 in /scratch/scratch/uccabz1/launch_tmp/launcher_2020-07-24-05-38-03-710529
REM CASTEP 19.11| from code version Version unavailable
REM Functional Perdew Burke Ernzerhof Relativity Koelling-Harmon Dispersion off
REM Cut-off 300.0000 eV Grid scale 1.7500 Gmax 15.5288 1/A FBSC none
REM MP grid 3 3 3 Offset 0.000 0.000 0.000 No. kpts 8 Spacing 0.07
REM Total runtime: 7227.35 s
REM Overall efficiency: 97.1429 %
REM
REM 4Ag2Se.cell (6404a18c6b5dc90313b5c56acf317f23)
REM
REM compiler GCC version 4.9.2
REM options -cpp -iprefix /scratch/UCL/applications/gcc/4.9.2/bin/../lib/gcc/x86_64-unknown-linux-gnu/4.9.2/ -mtune=corei7 -march=x86-64 -g -O2
REM COMMAND_LINE
REM seed 73943189 -1789466173 734158665 -621744473 -1203688520 1384835119 1878176829 -279116233 749602817 1147516073 121456334 799541348
REM
REM Se 3|2.1|7|7|9|40:41:32(qc=5)
REM Ag 3|2.2|7|7|9|40U:50:41:42(qc=5)
REM 
CELL 1.54180    6.97800    6.97800    7.33242  107.71923  107.71923  111.12338
LATT -1
SFAC Se Ag 
Se     1 -0.2623651978671  0.1701011966190 -0.0632173350289 1.0
Se     1  0.1991478628382 -0.2333185316479 -0.0632173350289 1.0
Se     1 -0.4833185316479  0.4491478628382  0.4367826649711 1.0
Se     1 -0.0798988033810 -0.0123651978671  0.4367826649711 1.0
Ag     2 -0.2691220677690  0.4771158336273 -0.1956039581801 1.0
Ag     2  0.0735181095889  0.3272802081926 -0.1956039581801 1.0
Ag     2  0.0772802081926  0.3235181095889  0.3043960418199 1.0
Ag     2  0.2271158336273 -0.0191220677690  0.3043960418199 1.0
Ag     2  0.2939874606582  0.0475598143888 -0.2674559067910 1.0
Ag     2  0.4385566325508 -0.3150157211798 -0.2674559067910 1.0
Ag     2  0.4349842788202 -0.3114433674492  0.2325440932090 1.0
Ag     2 -0.2024401856112 -0.4560125393418  0.2325440932090 1.0
END
