TITL 4Ag2Se-200724-042852-871ac6 0.0080 228.727306 -4.61313057E+004 0 0 12 (P2) n - 1
REM
REM Run started: Fri, 24 Jul 2020 05:37:20 +0100 in /scratch/scratch/uccabz1/launch_tmp/launcher_2020-07-24-03-28-49-676243
REM CASTEP 19.11| from code version Version unavailable
REM Functional Perdew Burke Ernzerhof Relativity Koelling-Harmon Dispersion off
REM Cut-off 300.0000 eV Grid scale 1.7500 Gmax 15.5288 1/A FBSC none
REM MP grid 3 3 2 Offset 0.000 0.000 0.000 No. kpts 5 Spacing 0.07
REM Total runtime: 4206.32 s
REM Overall efficiency: 94.5556 %
REM
REM 4Ag2Se.cell (6404a18c6b5dc90313b5c56acf317f23)
REM
REM compiler GCC version 4.9.2
REM options -cpp -iprefix /scratch/UCL/applications/gcc/4.9.2/bin/../lib/gcc/x86_64-unknown-linux-gnu/4.9.2/ -mtune=corei7 -march=x86-64 -g -O2
REM COMMAND_LINE
REM seed 305785331 -1127218159 613012374 173524805 1318544799 832995806 -315350564 133556125 1240511417 444845636 1826706658 945073616
REM
REM Se 3|2.1|7|7|9|40:41:32(qc=5)
REM Ag 3|2.2|7|7|9|40U:50:41:42(qc=5)
REM 
CELL 1.54180    5.17408    5.22161    8.56340   90.00000   90.00000   98.64795
LATT -1
SFAC Se Ag 
Se     1 -0.2697903488718 -0.2414068491935  0.0087265262708 1.0
Se     1  0.2697903488718  0.2414068491935  0.0087265262708 1.0
Se     1 -0.2338052861474 -0.2769079736949 -0.3791395976609 1.0
Se     1  0.2338052861474  0.2769079736949 -0.3791395976609 1.0
Ag     2 -0.2259476168335  0.2493387798244 -0.1732327295339 1.0
Ag     2  0.2259476168335 -0.2493387798244 -0.1732327295339 1.0
Ag     2 -0.2535096330098 -0.2773753058424  0.3154558974163 1.0
Ag     2  0.2535096330098  0.2773753058424  0.3154558974163 1.0
Ag     2  0.2429338533153 -0.2360992032138  0.1593707487944 1.0
Ag     2 -0.2429338533153  0.2360992032138  0.1593707487944 1.0
Ag     2  0.2678551598667 -0.2148464514212 -0.5070225452867 1.0
Ag     2 -0.2678551598667  0.2148464514212 -0.5070225452867 1.0
END
