TITL 4Ag2Se-200724-075748-722e88 0.0118 237.301819 -4.61324976E+004 0 0 12 (P21) n - 1
REM
REM Run started: Fri, 24 Jul 2020 10:16:27 +0100 in /rds/user/bz240/hpc-work/airss-fw/launch_tmp/launcher_2020-07-24-06-57-46-131299
REM CASTEP 19.11| from code version Version unavailable
REM Functional Perdew Burke Ernzerhof Relativity Koelling-Harmon Dispersion off
REM Cut-off 300.0000 eV Grid scale 1.7500 Gmax 15.5288 1/A FBSC none
REM MP grid 4 3 2 Offset 0.000 0.000 0.000 No. kpts 6 Spacing 0.07
REM Total runtime: 8644.77 s
REM Overall efficiency: 96.5385 %
REM
REM 4Ag2Se.cell (6404a18c6b5dc90313b5c56acf317f23)
REM
REM compiler GCC version 4.8.5 20150623 (Red Hat 4.8.5-39)
REM options -cpp -mtune=generic -march=x86-64 -g -Og
REM COMMAND_LINE
REM seed -1711331850 -823577729 1666705981 123342763 -683421582 1927982262 1950338132 520137283 -520021174 74828743 -2044092853 -286528011
REM
REM Se 3|2.1|7|7|9|40:41:32(qc=5)
REM Ag 3|2.2|7|7|9|40U:50:41:42(qc=5)
REM 
CELL 1.54180    4.26109    5.76636    9.66362   90.00000   90.00000   91.98749
LATT -1
SFAC Se Ag 
Se     1  0.3448674921913  0.0225817915167  0.1515815390748 1.0
Se     1 -0.3448674921913 -0.0225817915167 -0.3484184609252 1.0
Se     1  0.1504384820440 -0.4559830491189  0.4401364071843 1.0
Se     1 -0.1504384820440  0.4559830491189 -0.0598635928157 1.0
Ag     2 -0.2367078737485 -0.0573223117835 -0.0452193721665 1.0
Ag     2  0.2367078737485  0.0573223117835  0.4547806278335 1.0
Ag     2 -0.2317468050662  0.2854967301160  0.2850368081553 1.0
Ag     2  0.2317468050662 -0.2854967301160 -0.2149631918447 1.0
Ag     2  0.2622512070758  0.2128346496686 -0.1945379817329 1.0
Ag     2 -0.2622512070758 -0.2128346496686  0.3054620182671 1.0
Ag     2 -0.2888730603533  0.4681602713225 -0.3689384005150 1.0
Ag     2  0.2888730603533 -0.4681602713225  0.1310615994850 1.0
END
