TITL 4Ag2Se_TETRA-200724-162818-39fd5b -0.0106 253.702428 -4.61312245E+004 0 0 12 (Cccm) n - 1
REM
REM Run started: Fri, 24 Jul 2020 17:36:35 +0100 in /rds/user/bz240/hpc-work/airss-fw/launch_tmp/launcher_2020-07-24-15-28-16-606196
REM CASTEP 19.11| from code version Version unavailable
REM Functional Perdew Burke Ernzerhof Relativity Koelling-Harmon Dispersion off
REM Cut-off 300.0000 eV Grid scale 1.7500 Gmax 15.5288 1/A FBSC none
REM MP grid 3 3 4 Offset 0.000 0.000 0.000 No. kpts 8 Spacing 0.07
REM Total runtime: 4467.61 s
REM Overall efficiency: 95.1667 %
REM
REM 4Ag2Se_TETRA.cell (4020362940262d3df87d4014b41eb05e)
REM
REM compiler GCC version 4.8.5 20150623 (Red Hat 4.8.5-39)
REM options -cpp -mtune=generic -march=x86-64 -g -Og
REM COMMAND_LINE
REM seed 2053752556 -865380379 1364179590 -911264389 1282501110 415074906 974301483 -2110138728 1944321080 -1344623226 974455805 -175646229
REM
REM Se 3|2.1|7|7|9|40:41:32(qc=5)
REM Ag 3|2.2|7|7|9|40U:50:41:42(qc=5)
REM 
CELL 1.54180    8.06849    8.06849    4.54740   90.00000   90.00000   58.98064
LATT -1
SFAC Se Ag 
Se     1  0.1708049025725 -0.3951818920679 -0.2500000000000 1.0
Se     1 -0.1708049025725  0.3951818920679 -0.2500000000000 1.0
Se     1 -0.3951818920679  0.1708049025725  0.2500000000000 1.0
Se     1  0.3951818920679 -0.1708049025725  0.2500000000000 1.0
Ag     2  0.4010509031713  0.1971262927811 -0.2500000000000 1.0
Ag     2 -0.4010509031713 -0.1971262927811 -0.2500000000000 1.0
Ag     2  0.1971262927811  0.4010509031713  0.2500000000000 1.0
Ag     2 -0.1971262927811 -0.4010509031713  0.2500000000000 1.0
Ag     2  0.1878256568324 -0.0287427309051 -0.2500000000000 1.0
Ag     2 -0.1878256568324  0.0287427309051 -0.2500000000000 1.0
Ag     2 -0.0287427309051  0.1878256568324  0.2500000000000 1.0
Ag     2  0.0287427309051 -0.1878256568324  0.2500000000000 1.0
END
