TITL 4Ag2Se-200724-031943-83b261 0.1796 255.633962 -4.61325870E+004 0 0 12 (P-1) n - 1
REM
REM Run started: Fri, 24 Jul 2020 07:11:21 +0100 in /rds/user/bz240/hpc-work/airss-fw/launch_tmp/launcher_2020-07-24-02-19-41-475317
REM CASTEP 19.11| from code version Version unavailable
REM Functional Perdew Burke Ernzerhof Relativity Koelling-Harmon Dispersion off
REM Cut-off 300.0000 eV Grid scale 1.7500 Gmax 15.5288 1/A FBSC none
REM MP grid 3 3 2 Offset 0.000 0.000 0.000 No. kpts 9 Spacing 0.07
REM Total runtime: 15480.5 s
REM Overall efficiency: 97.4167 %
REM
REM 4Ag2Se.cell (6404a18c6b5dc90313b5c56acf317f23)
REM
REM compiler GCC version 4.8.5 20150623 (Red Hat 4.8.5-39)
REM options -cpp -mtune=generic -march=x86-64 -g -Og
REM COMMAND_LINE
REM seed 831190329 1718291769 1389128750 1192383959 415392783 -1267437472 -2013775771 1808507172 1015221112 -2093528878 -1871568015 2089091853
REM
REM Se 3|2.1|7|7|9|40:41:32(qc=5)
REM Ag 3|2.2|7|7|9|40U:50:41:42(qc=5)
REM 
CELL 1.54180    5.01634    5.05197   10.14631   95.32956   89.24967   87.02630
LATT -1
SFAC Se Ag 
Se     1  0.2115261563905 -0.3403344178590 -0.3772541337400 1.0
Se     1 -0.2115261563905  0.3403344178590  0.3772541337400 1.0
Se     1  0.1712785323465 -0.2531436040770  0.1066612224264 1.0
Se     1 -0.1712785323465  0.2531436040770 -0.1066612224264 1.0
Ag     2  0.2649843013563 -0.4073571860236  0.3447311300796 1.0
Ag     2 -0.2649843013563  0.4073571860236 -0.3447311300796 1.0
Ag     2  0.4805278456902  0.0443919514254  0.2439305666881 1.0
Ag     2 -0.4805278456902 -0.0443919514254 -0.2439305666881 1.0
Ag     2 -0.3295611049307 -0.2509619748791 -0.0037064326483 1.0
Ag     2  0.3295611049307  0.2509619748791  0.0037064326483 1.0
Ag     2  0.2431004095239  0.1340392667377 -0.4830828391144 1.0
Ag     2 -0.2431004095239 -0.1340392667377  0.4830828391144 1.0
END
