TITL 4Ag2Se-200724-031812-cfb137 0.0566 257.983144 -4.61323294E+004 0 0 12 (R3) n - 1
REM
REM Run started: Fri, 24 Jul 2020 03:41:44 +0100 in /scratch/scratch/uccabz1/launch_tmp/launcher_2020-07-24-02-18-10-665576
REM CASTEP 19.11| from code version Version unavailable
REM Functional Perdew Burke Ernzerhof Relativity Koelling-Harmon Dispersion off
REM Cut-off 300.0000 eV Grid scale 1.7500 Gmax 15.5288 1/A FBSC none
REM MP grid 3 3 3 Offset 0.000 0.000 0.000 No. kpts 6 Spacing 0.07
REM Total runtime: 1443.53 s
REM Overall efficiency: 87.6667 %
REM
REM 4Ag2Se.cell (6404a18c6b5dc90313b5c56acf317f23)
REM
REM compiler GCC version 4.9.2
REM options -cpp -iprefix /scratch/UCL/applications/gcc/4.9.2/bin/../lib/gcc/x86_64-unknown-linux-gnu/4.9.2/ -mtune=corei7 -march=x86-64 -g -O2
REM COMMAND_LINE
REM seed -244544251 797988850 1202713628 -1609278752 1888659630 -868873196 -1357817834 989382200 -192327126 186479683 -173327486 246920162
REM
REM Se 3|2.1|7|7|9|40:41:32(qc=5)
REM Ag 3|2.2|7|7|9|40U:50:41:42(qc=5)
REM 
CELL 1.54180    6.37920    6.37920    6.37920   86.23211   86.23211   86.23211
LATT -1
SFAC Se Ag 
Se     1 -0.2997310444635  0.2364424618922  0.2012087641930 1.0
Se     1  0.2012087641930 -0.2997310444635  0.2364424618922 1.0
Se     1  0.2364424618922  0.2012087641930 -0.2997310444635 1.0
Se     1 -0.2582793498299 -0.2582793498299 -0.2582793498299 1.0
Ag     2  0.3972217480821 -0.1656357697891 -0.4549441460363 1.0
Ag     2 -0.4549441460363  0.3972217480821 -0.1656357697891 1.0
Ag     2 -0.1656357697891 -0.4549441460363  0.3972217480821 1.0
Ag     2 -0.4362905031248 -0.1349826807569  0.1115504955575 1.0
Ag     2  0.1115504955575 -0.4362905031248 -0.1349826807569 1.0
Ag     2 -0.1349826807569  0.1115504955575 -0.4362905031248 1.0
Ag     2  0.0131905892676  0.0131905892676  0.0131905892676 1.0
Ag     2  0.2666994350081  0.2666994350081  0.2666994350081 1.0
END
