TITL 4Ag2Se_TETRA-200724-134253-816485 -0.0165 248.273287 -4.61309190E+004 0 0 12 (C2/c) n - 1
REM
REM Run started: Fri, 24 Jul 2020 14:43:08 +0100 in /rds/user/bz240/hpc-work/airss-fw/launch_tmp/launcher_2020-07-24-12-42-50-738048
REM CASTEP 19.11| from code version Version unavailable
REM Functional Perdew Burke Ernzerhof Relativity Koelling-Harmon Dispersion off
REM Cut-off 300.0000 eV Grid scale 1.7500 Gmax 15.5288 1/A FBSC none
REM MP grid 3 3 3 Offset 0.000 0.000 0.000 No. kpts 10 Spacing 0.07
REM Total runtime: 3958.93 s
REM Overall efficiency: 75.1667 %
REM
REM 4Ag2Se_TETRA.cell (4020362940262d3df87d4014b41eb05e)
REM
REM compiler GCC version 4.8.5 20150623 (Red Hat 4.8.5-39)
REM options -cpp -mtune=generic -march=x86-64 -g -Og
REM COMMAND_LINE
REM seed -74465720 126278366 -1662542044 1983829898 122975408 -863258207 18070921 75502161 -1794063835 -477388952 -832924446 -2005599299
REM
REM Se 3|2.1|7|7|9|40:41:32(qc=5)
REM Ag 3|2.2|7|7|9|40U:50:41:42(qc=5)
REM 
CELL 1.54180    6.21136    6.46844    6.21136   94.11357   89.86120   94.11357
LATT -1
SFAC Se Ag 
Se     1 -0.0995083915130  0.4700758131033 -0.4817162813086 1.0
Se     1  0.4817162813086 -0.4700758131033  0.0995083915130 1.0
Se     1  0.1237661186914 -0.0299241868967  0.2950092084870 1.0
Se     1 -0.2950092084870  0.0299241868967 -0.1237661186914 1.0
Ag     2  0.3003499234846 -0.1564556963506 -0.0865748960713 1.0
Ag     2  0.0865748960713  0.1564556963506 -0.3003499234846 1.0
Ag     2  0.0791579518112  0.3431677925299  0.1368188471043 1.0
Ag     2 -0.1368188471043 -0.3431677925299 -0.0791579518112 1.0
Ag     2 -0.2576987528957 -0.1568322074701  0.4736755518112 1.0
Ag     2 -0.4736755518112  0.1568322074701  0.2576987528957 1.0
Ag     2  0.3051324765154 -0.3435443036494  0.4810924960713 1.0
Ag     2 -0.4810924960713  0.3435443036494 -0.3051324765154 1.0
END
