TITL 4Ag2Se-200724-075125-8432c4 0.0249 270.946800 -4.61325740E+004 0 0 12 (P2) n - 1
REM
REM Run started: Fri, 24 Jul 2020 10:03:31 +0100 in /scratch/scratch/uccabz1/launch_tmp/launcher_2020-07-24-06-51-23-807621
REM CASTEP 19.11| from code version Version unavailable
REM Functional Perdew Burke Ernzerhof Relativity Koelling-Harmon Dispersion off
REM Cut-off 300.0000 eV Grid scale 1.7500 Gmax 15.5288 1/A FBSC none
REM MP grid 4 2 2 Offset 0.000 0.000 0.000 No. kpts 4 Spacing 0.07
REM Total runtime: 8051.61 s
REM Overall efficiency: 95.6667 %
REM
REM 4Ag2Se.cell (6404a18c6b5dc90313b5c56acf317f23)
REM
REM compiler GCC version 4.9.2
REM options -cpp -iprefix /scratch/UCL/applications/gcc/4.9.2/bin/../lib/gcc/x86_64-unknown-linux-gnu/4.9.2/ -mtune=corei7 -march=x86-64 -g -O2
REM COMMAND_LINE
REM seed 1218348176 -1492206853 -19311930 395584885 700125415 -505044962 -314538100 -418498288 1877558528 -1136475615 63281242 -879898182
REM
REM Se 3|2.1|7|7|9|40:41:32(qc=5)
REM Ag 3|2.2|7|7|9|40U:50:41:42(qc=5)
REM 
CELL 1.54180    4.20669    8.07360    8.01536   95.55768   90.00000   90.00000
LATT -1
SFAC Se Ag 
Se     1  0.0770208549518  0.2648245684781  0.1353052774883 1.0
Se     1  0.0770208549518 -0.2648245684781 -0.1353052774883 1.0
Se     1  0.3587850620951 -0.2654135140771  0.3625375060850 1.0
Se     1  0.3587850620951  0.2654135140771 -0.3625375060850 1.0
Ag     2 -0.3060910269088 -0.1739743806822  0.1044653509642 1.0
Ag     2 -0.3060910269088  0.1739743806822 -0.1044653509642 1.0
Ag     2 -0.1920426685609  0.2776995836218  0.4296949322627 1.0
Ag     2 -0.1920426685609 -0.2776995836218 -0.4296949322627 1.0
Ag     2 -0.4089924184960 -0.5213538194499  0.1762705574999 1.0
Ag     2 -0.4089924184960  0.5213538194499 -0.1762705574999 1.0
Ag     2  0.2694764969186 -0.0336463907639 -0.3057727933242 1.0
Ag     2  0.2694764969186  0.0336463907639  0.3057727933242 1.0
END
