TITL 4Ag2Se_TETRA-200724-164922-ace528 -0.0187 249.236377 -4.61320038E+004 0 0 12 (R3) n - 1
REM
REM Run started: Fri, 24 Jul 2020 17:37:17 +0100 in /scratch/scratch/uccabz1/launch_tmp/launcher_2020-07-24-15-49-21-340760
REM CASTEP 19.11| from code version Version unavailable
REM Functional Perdew Burke Ernzerhof Relativity Koelling-Harmon Dispersion off
REM Cut-off 300.0000 eV Grid scale 1.7500 Gmax 15.5288 1/A FBSC none
REM MP grid 3 3 3 Offset 0.000 0.000 0.000 No. kpts 6 Spacing 0.07
REM Total runtime: 3176.94 s
REM Overall efficiency: 93.1667 %
REM
REM 4Ag2Se_TETRA.cell (4020362940262d3df87d4014b41eb05e)
REM
REM compiler GCC version 4.9.2
REM options -cpp -iprefix /scratch/UCL/applications/gcc/4.9.2/bin/../lib/gcc/x86_64-unknown-linux-gnu/4.9.2/ -mtune=corei7 -march=x86-64 -g -O2
REM COMMAND_LINE
REM seed 505875602 -2124977147 128069552 -1791061295 786928965 820008426 -347505894 -2098727488 995501790 933919200 -200946349 -236553533
REM
REM Se 3|2.1|7|7|9|40:41:32(qc=5)
REM Ag 3|2.2|7|7|9|40U:50:41:42(qc=5)
REM 
CELL 1.54180    6.29335    6.29335    6.29335   89.58059   89.58059   89.58059
LATT -1
SFAC Se Ag 
Se     1  0.4097681577234 -0.1112033809406 -0.2029599019955 1.0
Se     1 -0.2029599019955  0.4097681577234 -0.1112033809406 1.0
Se     1 -0.1112033809406 -0.2029599019955  0.4097681577234 1.0
Se     1  0.3581648346239  0.3581648346239  0.3581648346239 1.0
Ag     2 -0.2114626344368  0.3681834341151  0.4503192220009 1.0
Ag     2  0.4503192220009 -0.2114626344368  0.3681834341151 1.0
Ag     2  0.3681834341151  0.4503192220009 -0.2114626344368 1.0
Ag     2  0.1486246882848 -0.3289035086649  0.0871500132975 1.0
Ag     2  0.0871500132975  0.1486246882848 -0.3289035086649 1.0
Ag     2 -0.3289035086649  0.0871500132975  0.1486246882848 1.0
Ag     2  0.1192991206495  0.1192991206495  0.1192991206495 1.0
Ag     2 -0.1638389446573 -0.1638389446573 -0.1638389446573 1.0
END
