TITL 4Ag2Se-200724-074830-ae5c9f -0.0606 253.521812 -4.61314030E+004 0 0 12 (Pmma) n - 1
REM
REM Run started: Fri, 24 Jul 2020 08:00:39 +0100 in /rds/user/bz240/hpc-work/airss-fw/launch_tmp/launcher_2020-07-24-06-48-28-904500
REM CASTEP 19.11| from code version Version unavailable
REM Functional Perdew Burke Ernzerhof Relativity Koelling-Harmon Dispersion off
REM Cut-off 300.0000 eV Grid scale 1.7500 Gmax 15.5288 1/A FBSC none
REM MP grid 4 2 2 Offset 0.000 0.000 0.000 No. kpts 2 Spacing 0.07
REM Total runtime: 897.75 s
REM Overall efficiency: 76.3333 %
REM
REM 4Ag2Se.cell (6404a18c6b5dc90313b5c56acf317f23)
REM
REM compiler GCC version 4.8.5 20150623 (Red Hat 4.8.5-39)
REM options -cpp -mtune=generic -march=x86-64 -g -Og
REM COMMAND_LINE
REM seed 1342108603 1952495787 -55943471 -1041037624 904223127 -1982164074 855787495 -140954346 -1944814510 -199568364 -924098124 -393785941
REM
REM Se 3|2.1|7|7|9|40:41:32(qc=5)
REM Ag 3|2.2|7|7|9|40U:50:41:42(qc=5)
REM 
CELL 1.54180    4.50473    7.35994    7.64666   90.00000   90.00000   90.00000
LATT -1
SFAC Se Ag 
Se     1  0.2500000000000 -0.2930652788885 -0.3386950441649 1.0
Se     1 -0.2500000000000  0.2930652788885 -0.3386950441649 1.0
Se     1  0.2500000000000 -0.2930652788885  0.1613049558351 1.0
Se     1 -0.2500000000000  0.2930652788885  0.1613049558351 1.0
Ag     2  0.2500000000000  0.0999636155332 -0.3438880553099 1.0
Ag     2 -0.2500000000000 -0.0999636155332 -0.3438880553099 1.0
Ag     2  0.2500000000000  0.0999636155332  0.1561119446901 1.0
Ag     2 -0.2500000000000 -0.0999636155332  0.1561119446901 1.0
Ag     2 -0.2500000000000 -0.3872652572817  0.4083170994747 1.0
Ag     2  0.2500000000000  0.3872652572817  0.4083170994747 1.0
Ag     2 -0.2500000000000 -0.3872652572817 -0.0916829005253 1.0
Ag     2  0.2500000000000  0.3872652572817 -0.0916829005253 1.0
END
