TITL 4Ag2Se-200724-054743-814386 0.0525 244.807537 -4.61325333E+004 0 0 12 (Pca21) n - 1
REM
REM Run started: Fri, 24 Jul 2020 07:38:56 +0100 in /scratch/scratch/uccabz1/launch_tmp/launcher_2020-07-24-04-47-41-415346
REM CASTEP 19.11| from code version Version unavailable
REM Functional Perdew Burke Ernzerhof Relativity Koelling-Harmon Dispersion off
REM Cut-off 300.0000 eV Grid scale 1.7500 Gmax 15.5288 1/A FBSC none
REM MP grid 3 3 2 Offset 0.000 0.000 0.000 No. kpts 4 Spacing 0.07
REM Total runtime: 7222.72 s
REM Overall efficiency: 95.5 %
REM
REM 4Ag2Se.cell (6404a18c6b5dc90313b5c56acf317f23)
REM
REM compiler GCC version 4.9.2
REM options -cpp -iprefix /scratch/UCL/applications/gcc/4.9.2/bin/../lib/gcc/x86_64-unknown-linux-gnu/4.9.2/ -mtune=corei7 -march=x86-64 -g -O2
REM COMMAND_LINE
REM seed -38138200 262117044 340484302 -1182520558 630857834 -1314365660 -1507039417 717217819 -1683338111 -851781264 -1176648543 -1290531493
REM
REM Se 3|2.1|7|7|9|40:41:32(qc=5)
REM Ag 3|2.2|7|7|9|40U:50:41:42(qc=5)
REM 
CELL 1.54180    5.00571    6.81609    7.17502   90.00000   90.00000   90.00000
LATT -1
SFAC Se Ag 
Se     1  0.0699596261359  0.2607782412940 -0.4039350643889 1.0
Se     1 -0.0699596261359 -0.2607782412940  0.0960649356111 1.0
Se     1 -0.4300403738641 -0.2607782412940 -0.4039350643889 1.0
Se     1  0.4300403738641  0.2607782412940  0.0960649356111 1.0
Ag     2 -0.5480693445136 -0.0997973141243  0.2639953561166 1.0
Ag     2  0.5480693445136  0.0997973141243 -0.2360046438834 1.0
Ag     2 -0.0480693445136  0.0997973141243  0.2639953561166 1.0
Ag     2  0.0480693445136 -0.0997973141243 -0.2360046438834 1.0
Ag     2 -0.0748009250301  0.3645929973881 -0.0590040917277 1.0
Ag     2  0.0748009250301 -0.3645929973881  0.4409959082723 1.0
Ag     2  0.4251990749699 -0.3645929973881 -0.0590040917277 1.0
Ag     2 -0.4251990749699  0.3645929973881  0.4409959082723 1.0
END
