TITL 4Ag2Se-200724-223332-f39cda 0.0483 237.867272 -4.61326608E+004 0 0 12 (P212121) n - 1
REM
REM Run started: Fri, 24 Jul 2020 23:21:03 +0100 in /scratch/scratch/uccabz1/launch_tmp/launcher_2020-07-24-21-33-30-604185
REM CASTEP 19.11| from code version Version unavailable
REM Functional Perdew Burke Ernzerhof Relativity Koelling-Harmon Dispersion off
REM Cut-off 300.0000 eV Grid scale 1.7500 Gmax 15.5288 1/A FBSC none
REM MP grid 3 3 2 Offset 0.000 0.000 0.000 No. kpts 4 Spacing 0.07
REM Total runtime: 3029.93 s
REM Overall efficiency: 93.75 %
REM
REM 4Ag2Se.cell (6404a18c6b5dc90313b5c56acf317f23)
REM
REM compiler GCC version 4.9.2
REM options -cpp -iprefix /scratch/UCL/applications/gcc/4.9.2/bin/../lib/gcc/x86_64-unknown-linux-gnu/4.9.2/ -mtune=corei7 -march=x86-64 -g -O2
REM COMMAND_LINE
REM seed 2138783156 -177865907 338937904 -511050967 529451849 -1771381880 207080376 1857760636 -542688233 754681654 -1661787463 -1155998748
REM
REM Se 3|2.1|7|7|9|40:41:32(qc=5)
REM Ag 3|2.2|7|7|9|40U:50:41:42(qc=5)
REM 
CELL 1.54180    4.99496    5.02833    9.47064   90.00000   90.00000   90.00000
LATT -1
SFAC Se Ag 
Se     1  0.1235256330831 -0.1595018325758 -0.1170678768373 1.0
Se     1 -0.1235256330831 -0.3404981674242  0.3829321231627 1.0
Se     1 -0.3764743669169  0.1595018325758 -0.3829321231627 1.0
Se     1  0.3764743669169  0.3404981674242  0.1170678768373 1.0
Ag     2 -0.1907764390669  0.1450816394266  0.2620954977728 1.0
Ag     2  0.1907764390669  0.3549183605734 -0.2379045022272 1.0
Ag     2  0.3092235609331 -0.1450816394266  0.2379045022272 1.0
Ag     2 -0.3092235609331 -0.3549183605734 -0.2620954977728 1.0
Ag     2 -0.1936517943528 -0.3476003404276  0.0790561633747 1.0
Ag     2  0.1936517943528 -0.1523996595724 -0.4209438366253 1.0
Ag     2  0.3063482056472  0.3476003404276  0.4209438366253 1.0
Ag     2 -0.3063482056472  0.1523996595724 -0.0790561633747 1.0
END
