TITL 4Ag2Se_TETRA-200724-174802-a497d3 -0.0683 244.047136 -4.61320490E+004 0 0 12 (P21) n - 1
REM
REM Run started: Fri, 24 Jul 2020 18:40:42 +0100 in /scratch/scratch/uccabz1/launch_tmp/launcher_2020-07-24-16-48-00-742460
REM CASTEP 19.11| from code version Version unavailable
REM Functional Perdew Burke Ernzerhof Relativity Koelling-Harmon Dispersion off
REM Cut-off 300.0000 eV Grid scale 1.7500 Gmax 15.5288 1/A FBSC none
REM MP grid 2 2 4 Offset 0.000 0.000 0.000 No. kpts 4 Spacing 0.07
REM Total runtime: 3487.47 s
REM Overall efficiency: 93.4167 %
REM
REM 4Ag2Se_TETRA.cell (4020362940262d3df87d4014b41eb05e)
REM
REM compiler GCC version 4.9.2
REM options -cpp -iprefix /scratch/UCL/applications/gcc/4.9.2/bin/../lib/gcc/x86_64-unknown-linux-gnu/4.9.2/ -mtune=corei7 -march=x86-64 -g -O2
REM COMMAND_LINE
REM seed 231473538 128729563 -1296384984 1779229896 -1286482557 990419240 737386621 1160588268 1686816646 1166579167 -235786788 1044357941
REM
REM Se 3|2.1|7|7|9|40:41:32(qc=5)
REM Ag 3|2.2|7|7|9|40U:50:41:42(qc=5)
REM 
CELL 1.54180    7.33142    7.24998    4.59157   90.00000   89.56751   90.00000
LATT -1
SFAC Se Ag 
Se     1  0.0648079482718 -0.0421925507948  0.2587402653723 1.0
Se     1 -0.0648079482718  0.4578074492052 -0.2587402653723 1.0
Se     1  0.4313072966259 -0.3774699731011 -0.4050145782270 1.0
Se     1 -0.4313072966259  0.1225300268989  0.4050145782270 1.0
Ag     2  0.4471506623849  0.2987989569613 -0.0702457271686 1.0
Ag     2 -0.4471506623849 -0.2012010430387  0.0702457271686 1.0
Ag     2  0.2551244950019 -0.0425228296127 -0.2373082134818 1.0
Ag     2 -0.2551244950019  0.4574771703873  0.2373082134818 1.0
Ag     2 -0.1935161081344  0.1092016463701 -0.0766880365149 1.0
Ag     2  0.1935161081344 -0.3907983536299  0.0766880365149 1.0
Ag     2  0.2143537827797  0.2931040501771  0.4438912515265 1.0
Ag     2 -0.2143537827797 -0.2068959498229 -0.4438912515265 1.0
END
