TITL 4Ag2Se-200724-052411-4eaca7 -0.0101 249.169882 -4.61311202E+004 0 0 12 (R3) n - 1
REM
REM Run started: Fri, 24 Jul 2020 07:48:30 +0100 in /scratch/scratch/uccabz1/launch_tmp/launcher_2020-07-24-04-24-08-866933
REM CASTEP 19.11| from code version Version unavailable
REM Functional Perdew Burke Ernzerhof Relativity Koelling-Harmon Dispersion off
REM Cut-off 300.0000 eV Grid scale 1.7500 Gmax 15.5288 1/A FBSC none
REM MP grid 3 3 3 Offset 0.000 0.000 0.000 No. kpts 6 Spacing 0.07
REM Total runtime: 9232.66 s
REM Overall efficiency: 96.8 %
REM
REM 4Ag2Se.cell (6404a18c6b5dc90313b5c56acf317f23)
REM
REM compiler GCC version 4.9.2
REM options -cpp -iprefix /scratch/UCL/applications/gcc/4.9.2/bin/../lib/gcc/x86_64-unknown-linux-gnu/4.9.2/ -mtune=corei7 -march=x86-64 -g -O2
REM COMMAND_LINE
REM seed 410133684 -372457289 -270439920 1252611095 -52704997 284312789 -1710906277 2000802166 -1062196560 912650279 -213829443 -1707167834
REM
REM Se 3|2.1|7|7|9|40:41:32(qc=5)
REM Ag 3|2.2|7|7|9|40U:50:41:42(qc=5)
REM 
CELL 1.54180    7.26896    7.26896    6.87486   58.08491   58.08491   60.00000
LATT -1
SFAC Se Ag 
Se     1  0.2660916630976 -0.0956262778321  0.3113045843457 1.0
Se     1 -0.0956262778321 -0.4817699696112  0.3113045843457 1.0
Se     1 -0.4817699696112  0.2660916630976  0.3113045843457 1.0
Se     1 -0.2869708089699 -0.2869708089699 -0.1390875730903 1.0
Ag     2  0.1069224033746 -0.4451526817650 -0.4720334188004 1.0
Ag     2 -0.4451526817650 -0.1897363028092 -0.4720334188004 1.0
Ag     2 -0.1897363028092  0.1069224033746 -0.4720334188004 1.0
Ag     2  0.3470919229982  0.1654425449856 -0.1528959754187 1.0
Ag     2  0.1654425449856 -0.3596384925652 -0.1528959754187 1.0
Ag     2 -0.3596384925652  0.3470919229982 -0.1528959754187 1.0
Ag     2  0.1256471739158  0.1256471739158 -0.3769415217473 1.0
Ag     2 -0.0430327081523 -0.0430327081523  0.1290981244569 1.0
END
