TITL 4Ag2Se-200724-034228-a4b158 0.0118 240.500599 -4.61317191E+004 0 0 12 (P-1) n - 1
REM
REM Run started: Fri, 24 Jul 2020 05:44:59 +0100 in /scratch/scratch/uccabz1/launch_tmp/launcher_2020-07-24-02-42-25-900461
REM CASTEP 19.11| from code version Version unavailable
REM Functional Perdew Burke Ernzerhof Relativity Koelling-Harmon Dispersion off
REM Cut-off 300.0000 eV Grid scale 1.7500 Gmax 15.5288 1/A FBSC none
REM MP grid 4 4 2 Offset 0.000 0.000 0.000 No. kpts 16 Spacing 0.07
REM Total runtime: 7501.44 s
REM Overall efficiency: 95.5 %
REM
REM 4Ag2Se.cell (6404a18c6b5dc90313b5c56acf317f23)
REM
REM compiler GCC version 4.9.2
REM options -cpp -iprefix /scratch/UCL/applications/gcc/4.9.2/bin/../lib/gcc/x86_64-unknown-linux-gnu/4.9.2/ -mtune=corei7 -march=x86-64 -g -O2
REM COMMAND_LINE
REM seed 1225212405 865860586 -609980125 911779843 585220371 -751505432 -1398060739 543364068 1833726505 346065240 -1329701989 1492598084
REM
REM Se 3|2.1|7|7|9|40:41:32(qc=5)
REM Ag 3|2.2|7|7|9|40U:50:41:42(qc=5)
REM 
CELL 1.54180    4.04861    4.67467   12.76580   93.49784   93.64348   91.89958
LATT -1
SFAC Se Ag 
Se     1 -0.4811764717109  0.2218685412676 -0.2883844143804 1.0
Se     1  0.4811764717109 -0.2218685412676  0.2883844143804 1.0
Se     1 -0.2856736723038 -0.2668389927197 -0.0851643529945 1.0
Se     1  0.2856736723038  0.2668389927197  0.0851643529945 1.0
Ag     2  0.4669370963989  0.2618428504557  0.4173669928544 1.0
Ag     2 -0.4669370963989 -0.2618428504557 -0.4173669928544 1.0
Ag     2  0.0251321505531 -0.2362365491495  0.1107046010958 1.0
Ag     2 -0.0251321505531  0.2362365491495 -0.1107046010958 1.0
Ag     2  0.0001634999541  0.2681129967416 -0.4269532552457 1.0
Ag     2 -0.0001634999541 -0.2681129967416  0.4269532552457 1.0
Ag     2  0.1698150869944 -0.2762272491538 -0.2309870191643 1.0
Ag     2 -0.1698150869944  0.2762272491538  0.2309870191643 1.0
END
