TITL 4Ag2Se_TETRA-200724-173001-cc7b91 -0.0113 249.272259 -4.61322725E+004 0 0 12 (P2) n - 1
REM
REM Run started: Fri, 24 Jul 2020 18:37:56 +0100 in /scratch/scratch/uccabz1/launch_tmp/launcher_2020-07-24-16-29-59-917911
REM CASTEP 19.11| from code version Version unavailable
REM Functional Perdew Burke Ernzerhof Relativity Koelling-Harmon Dispersion off
REM Cut-off 300.0000 eV Grid scale 1.7500 Gmax 15.5288 1/A FBSC none
REM MP grid 3 3 2 Offset 0.000 0.000 0.000 No. kpts 5 Spacing 0.07
REM Total runtime: 4383.89 s
REM Overall efficiency: 94.75 %
REM
REM 4Ag2Se_TETRA.cell (4020362940262d3df87d4014b41eb05e)
REM
REM compiler GCC version 4.9.2
REM options -cpp -iprefix /scratch/UCL/applications/gcc/4.9.2/bin/../lib/gcc/x86_64-unknown-linux-gnu/4.9.2/ -mtune=corei7 -march=x86-64 -g -O2
REM COMMAND_LINE
REM seed 2089579462 1015538829 1578824366 -936249978 -1686498762 479955318 409153314 -1527681283 1185213323 -1462585706 604024419 785941700
REM
REM Se 3|2.1|7|7|9|40:41:32(qc=5)
REM Ag 3|2.2|7|7|9|40U:50:41:42(qc=5)
REM 
CELL 1.54180    5.56869    6.27567    7.14031   90.00000   90.00000   87.37259
LATT -1
SFAC Se Ag 
Se     1 -0.2760878971411  0.2664541213632 -0.2616889728796 1.0
Se     1  0.2760878971411 -0.2664541213632 -0.2616889728796 1.0
Se     1 -0.2172828453140 -0.2341223105789  0.3175015048531 1.0
Se     1  0.2172828453140  0.2341223105789  0.3175015048531 1.0
Ag     2  0.2038572819804  0.1651668029466 -0.3050856520923 1.0
Ag     2 -0.2038572819804 -0.1651668029466 -0.3050856520923 1.0
Ag     2  0.2533540071363 -0.0481396171676  0.0538059281689 1.0
Ag     2 -0.2533540071363  0.0481396171676  0.0538059281689 1.0
Ag     2 -0.2526631058829 -0.4514564508835  0.0024674831784 1.0
Ag     2  0.2526631058829  0.4514564508835  0.0024674831784 1.0
Ag     2  0.3011064429659 -0.3383945545739  0.3605107087716 1.0
Ag     2 -0.3011064429659  0.3383945545739  0.3605107087716 1.0
END
