TITL 4Ag2Se_TETRA-200724-161639-d4fb95 -0.0299 253.443893 -4.61305467E+004 0 0 12 (C2/m) n - 1
REM
REM Run started: Fri, 24 Jul 2020 17:09:52 +0100 in /scratch/scratch/uccabz1/launch_tmp/launcher_2020-07-24-15-16-37-241449
REM CASTEP 19.11| from code version Version unavailable
REM Functional Perdew Burke Ernzerhof Relativity Koelling-Harmon Dispersion off
REM Cut-off 300.0000 eV Grid scale 1.7500 Gmax 15.5288 1/A FBSC none
REM MP grid 3 2 3 Offset 0.000 0.000 0.000 No. kpts 6 Spacing 0.07
REM Total runtime: 3531.79 s
REM Overall efficiency: 93.5833 %
REM
REM 4Ag2Se_TETRA.cell (4020362940262d3df87d4014b41eb05e)
REM
REM compiler GCC version 4.9.2
REM options -cpp -iprefix /scratch/UCL/applications/gcc/4.9.2/bin/../lib/gcc/x86_64-unknown-linux-gnu/4.9.2/ -mtune=corei7 -march=x86-64 -g -O2
REM COMMAND_LINE
REM seed -1637672305 -616140643 -149205151 2101469845 1944770224 679117313 1763104774 -52415820 1319518542 -154861748 1516908232 -575234791
REM
REM Se 3|2.1|7|7|9|40:41:32(qc=5)
REM Ag 3|2.2|7|7|9|40U:50:41:42(qc=5)
REM 
CELL 1.54180    5.96598    7.42686    5.96598   97.86136   76.83486   97.86136
LATT -1
SFAC Se Ag 
Se     1 -0.1911133704056  0.0159995434475  0.3089974969965 1.0
Se     1 -0.3089974969965  0.4840004565525  0.1911133704056 1.0
Se     1  0.1911133704056 -0.0159995434475 -0.3089974969965 1.0
Se     1  0.3089974969965 -0.4840004565525 -0.1911133704056 1.0
Ag     2 -0.3112796544400  0.3459841290117 -0.4028929800162 1.0
Ag     2  0.4028929800162  0.1540158709883  0.3112796544400 1.0
Ag     2  0.3112796544400 -0.3459841290117  0.4028929800162 1.0
Ag     2 -0.4028929800162 -0.1540158709883 -0.3112796544400 1.0
Ag     2 -0.1885302233276  0.1538949608874 -0.0972172284210 1.0
Ag     2  0.0972172284210  0.3461050391126  0.1885302233276 1.0
Ag     2  0.1885302233276 -0.1538949608874  0.0972172284210 1.0
Ag     2 -0.0972172284210 -0.3461050391126 -0.1885302233276 1.0
END
