TITL 4Ag2Se_TETRA-200724-134253-2eea65 -0.0145 246.488609 -4.61327601E+004 0 0 12 (P21) n - 1
REM
REM Run started: Fri, 24 Jul 2020 14:40:04 +0100 in /rds/user/bz240/hpc-work/airss-fw/launch_tmp/launcher_2020-07-24-12-42-50-738739
REM CASTEP 19.11| from code version Version unavailable
REM Functional Perdew Burke Ernzerhof Relativity Koelling-Harmon Dispersion off
REM Cut-off 300.0000 eV Grid scale 1.7500 Gmax 15.5288 1/A FBSC none
REM MP grid 3 3 3 Offset 0.000 0.000 0.000 No. kpts 10 Spacing 0.07
REM Total runtime: 3790.41 s
REM Overall efficiency: 76.5 %
REM
REM 4Ag2Se_TETRA.cell (4020362940262d3df87d4014b41eb05e)
REM
REM compiler GCC version 4.8.5 20150623 (Red Hat 4.8.5-39)
REM options -cpp -mtune=generic -march=x86-64 -g -Og
REM COMMAND_LINE
REM seed 62161030 -781324517 -386588001 -322055581 -470008838 1791134408 -119966490 55020659 1027481437 334935458 -367792842 2079340007
REM
REM Se 3|2.1|7|7|9|40:41:32(qc=5)
REM Ag 3|2.2|7|7|9|40U:50:41:42(qc=5)
REM 
CELL 1.54180    6.45549    5.84857    6.52889   90.00000   90.00000   90.57336
LATT -1
SFAC Se Ag 
Se     1 -0.0780939434413  0.2530067124441  0.0617320964879 1.0
Se     1  0.0780939434413 -0.2530067124441 -0.4382679035121 1.0
Se     1 -0.4238558904159 -0.2472631416412  0.2089889041640 1.0
Se     1  0.4238558904159  0.2472631416412 -0.2910110958360 1.0
Ag     2  0.1942820859784 -0.4309075250873  0.1700884800727 1.0
Ag     2 -0.1942820859784  0.4309075250873 -0.3299115199273 1.0
Ag     2 -0.2806566008129 -0.0321141695528 -0.4353329904439 1.0
Ag     2  0.2806566008129  0.0321141695528  0.0646670095561 1.0
Ag     2  0.4425529710603 -0.3025261538855 -0.1974124654512 1.0
Ag     2 -0.4425529710603  0.3025261538855  0.3025875345488 1.0
Ag     2  0.1124609057071  0.1943199697666  0.4394527751706 1.0
Ag     2 -0.1124609057071 -0.1943199697666 -0.0605472248294 1.0
END
