TITL 4Ag2Se_TETRA-200724-171558-3326de -0.0054 247.922544 -4.61326607E+004 0 0 12 (P-43m) n - 1
REM
REM Run started: Fri, 24 Jul 2020 18:01:45 +0100 in /scratch/scratch/uccabz1/launch_tmp/launcher_2020-07-24-16-15-56-372270
REM CASTEP 19.11| from code version Version unavailable
REM Functional Perdew Burke Ernzerhof Relativity Koelling-Harmon Dispersion off
REM Cut-off 300.0000 eV Grid scale 1.7500 Gmax 15.5288 1/A FBSC none
REM MP grid 3 3 3 Offset 0.000 0.000 0.000 No. kpts 6 Spacing 0.07
REM Total runtime: 3039.27 s
REM Overall efficiency: 93.1667 %
REM
REM 4Ag2Se_TETRA.cell (4020362940262d3df87d4014b41eb05e)
REM
REM compiler GCC version 4.9.2
REM options -cpp -iprefix /scratch/UCL/applications/gcc/4.9.2/bin/../lib/gcc/x86_64-unknown-linux-gnu/4.9.2/ -mtune=corei7 -march=x86-64 -g -O2
REM COMMAND_LINE
REM seed 1829277679 -100143923 1203267571 -494377600 150919079 1738469504 2949041 -1479865228 -1090136751 -497220127 533892799 1972112755
REM
REM Se 3|2.1|7|7|9|40:41:32(qc=5)
REM Ag 3|2.2|7|7|9|40U:50:41:42(qc=5)
REM 
CELL 1.54180    6.28212    6.28212    6.28212   89.87377   89.87377   89.87377
LATT -1
SFAC Se Ag 
Se     1  0.1982318027549  0.1982318027549 -0.2955468004216 1.0
Se     1  0.1982318027549 -0.2955468004216  0.1982318027549 1.0
Se     1 -0.2955468004216  0.1982318027549  0.1982318027549 1.0
Se     1 -0.2963559321863 -0.2963559321863 -0.2963559321863 1.0
Ag     2  0.1309865391135 -0.2318912116856 -0.2318912116856 1.0
Ag     2 -0.2318912116856 -0.2318912116856  0.1309865391135 1.0
Ag     2 -0.2318912116856  0.1309865391135 -0.2318912116856 1.0
Ag     2  0.4502190805151 -0.0510212889096  0.4502190805151 1.0
Ag     2 -0.0510212889096  0.4502190805151  0.4502190805151 1.0
Ag     2  0.4502190805151  0.4502190805151 -0.0510212889096 1.0
Ag     2  0.4463675105669  0.4463675105669  0.4463675105669 1.0
Ag     2  0.1316890286683  0.1316890286683  0.1316890286683 1.0
END
