TITL 4Ag2Se_TETRA-200724-181455-017d6e -0.0038 239.933399 -4.61316552E+004 0 0 12 (Cc) n - 1
REM
REM Run started: Fri, 24 Jul 2020 19:19:23 +0100 in /scratch/scratch/uccabz1/launch_tmp/launcher_2020-07-24-17-14-53-845820
REM CASTEP 19.11| from code version Version unavailable
REM Functional Perdew Burke Ernzerhof Relativity Koelling-Harmon Dispersion off
REM Cut-off 300.0000 eV Grid scale 1.7500 Gmax 15.5288 1/A FBSC none
REM MP grid 3 3 3 Offset 0.000 0.000 0.000 No. kpts 10 Spacing 0.07
REM Total runtime: 4288.3 s
REM Overall efficiency: 95.25 %
REM
REM 4Ag2Se_TETRA.cell (4020362940262d3df87d4014b41eb05e)
REM
REM compiler GCC version 4.9.2
REM options -cpp -iprefix /scratch/UCL/applications/gcc/4.9.2/bin/../lib/gcc/x86_64-unknown-linux-gnu/4.9.2/ -mtune=corei7 -march=x86-64 -g -O2
REM COMMAND_LINE
REM seed -1721995937 -679952350 1891833972 1168698706 -1994278414 1056014787 523310893 -1592141068 1496058372 1036327563 382974528 -1614596447
REM
REM Se 3|2.1|7|7|9|40:41:32(qc=5)
REM Ag 3|2.2|7|7|9|40U:50:41:42(qc=5)
REM 
CELL 1.54180    6.69878    6.02555    6.02555   98.41981   87.22930   87.22930
LATT -1
SFAC Se Ag 
Se     1  0.1369860185726  0.3147266941428 -0.4802247744702 1.0
Se     1 -0.3630139814274 -0.4802247744702  0.3147266941428 1.0
Se     1 -0.3591277953787  0.1116705515253 -0.2480033649668 1.0
Se     1  0.1408722046213 -0.2480033649668  0.1116705515253 1.0
Ag     2  0.4532383651425 -0.0509946873047  0.3416773232570 1.0
Ag     2 -0.0467616348575  0.3416773232570 -0.0509946873047 1.0
Ag     2 -0.1560568303109  0.1016273354737  0.2952816383788 1.0
Ag     2  0.3439431696891  0.2952816383788  0.1016273354737 1.0
Ag     2 -0.2564534852809 -0.2417049255890 -0.0368877043767 1.0
Ag     2  0.2435465147191 -0.0368877043767 -0.2417049255890 1.0
Ag     2  0.4397710272555 -0.4630637222067 -0.2650333638635 1.0
Ag     2 -0.0602289727445 -0.2650333638635 -0.4630637222067 1.0
END
