TITL 4Ag2Se_TETRA-200724-155400-c2b40d 0.0507 263.036614 -4.61312532E+004 0 0 12 (P4/mmm) n - 1
REM
REM Run started: Fri, 24 Jul 2020 16:43:11 +0100 in /rds/user/bz240/hpc-work/airss-fw/launch_tmp/launcher_2020-07-24-14-53-58-548714
REM CASTEP 19.11| from code version Version unavailable
REM Functional Perdew Burke Ernzerhof Relativity Koelling-Harmon Dispersion off
REM Cut-off 300.0000 eV Grid scale 1.7500 Gmax 15.5288 1/A FBSC none
REM MP grid 3 3 2 Offset 0.000 0.000 0.000 No. kpts 4 Spacing 0.07
REM Total runtime: 3226.13 s
REM Overall efficiency: 94.5 %
REM
REM 4Ag2Se_TETRA.cell (4020362940262d3df87d4014b41eb05e)
REM
REM compiler GCC version 4.8.5 20150623 (Red Hat 4.8.5-39)
REM options -cpp -mtune=generic -march=x86-64 -g -Og
REM COMMAND_LINE
REM seed -2044511869 1076478556 -1315033540 -1777284071 325961902 -1765299092 -201576796 196283366 -875818597 -1573996391 1286488212 2034541495
REM
REM Se 3|2.1|7|7|9|40:41:32(qc=5)
REM Ag 3|2.2|7|7|9|40U:50:41:42(qc=5)
REM 
CELL 1.54180    5.70815    5.69606    8.08995   90.00000   90.00000   90.00000
LATT -1
SFAC Se Ag 
Se     1  0.0167379114052  0.4986335644241 -0.2594264502790 1.0
Se     1  0.0167379114052 -0.4986335644241  0.2594264502790 1.0
Se     1 -0.4832620885948  0.0013664355759 -0.2594264502790 1.0
Se     1 -0.4832620885948 -0.0013664355759  0.2594264502790 1.0
Ag     2  0.2655849334742 -0.2500503070971  0.0045602549322 1.0
Ag     2  0.2655849334742  0.2500503070971 -0.0045602549322 1.0
Ag     2 -0.2344150665258 -0.2499496929029  0.0045602549322 1.0
Ag     2 -0.2344150665258  0.2499496929029 -0.0045602549322 1.0
Ag     2  0.0173162551206  0.0058008260430  0.2638566018673 1.0
Ag     2  0.0173162551206 -0.0058008260430 -0.2638566018673 1.0
Ag     2 -0.4826837448794  0.4941991739570  0.2638566018673 1.0
Ag     2 -0.4826837448794 -0.4941991739570 -0.2638566018673 1.0
END
