TITL 4Ag2Se_TETRA-200724-175106-78755a -0.0041 240.500048 -4.61324599E+004 0 0 12 (P21) n - 1
REM
REM Run started: Fri, 24 Jul 2020 18:36:21 +0100 in /scratch/scratch/uccabz1/launch_tmp/launcher_2020-07-24-16-51-04-024012
REM CASTEP 19.11| from code version Version unavailable
REM Functional Perdew Burke Ernzerhof Relativity Koelling-Harmon Dispersion off
REM Cut-off 300.0000 eV Grid scale 1.7500 Gmax 15.5288 1/A FBSC none
REM MP grid 2 2 4 Offset 0.000 0.000 0.000 No. kpts 4 Spacing 0.07
REM Total runtime: 2998.33 s
REM Overall efficiency: 93.0833 %
REM
REM 4Ag2Se_TETRA.cell (4020362940262d3df87d4014b41eb05e)
REM
REM compiler GCC version 4.9.2
REM options -cpp -iprefix /scratch/UCL/applications/gcc/4.9.2/bin/../lib/gcc/x86_64-unknown-linux-gnu/4.9.2/ -mtune=corei7 -march=x86-64 -g -O2
REM COMMAND_LINE
REM seed -1362352613 776592890 415273691 482191022 1897711275 -647283122 137615612 -2109897092 1170698642 -569953846 -978234624 1815827492
REM
REM Se 3|2.1|7|7|9|40:41:32(qc=5)
REM Ag 3|2.2|7|7|9|40U:50:41:42(qc=5)
REM 
CELL 1.54180    7.71968    7.73382    4.02888   90.00000   90.97204   90.00000
LATT -1
SFAC Se Ag 
Se     1 -0.1664865368167 -0.3473039741462  0.0243323464816 1.0
Se     1  0.1664865368167  0.1526960258538 -0.0243323464816 1.0
Se     1 -0.4087765762568  0.1869732772536  0.4913054713000 1.0
Se     1  0.4087765762568 -0.3130267227464 -0.4913054713000 1.0
Ag     2 -0.1647910820459  0.1365703934231  0.0185713089114 1.0
Ag     2  0.1647910820459 -0.3634296065769 -0.0185713089114 1.0
Ag     2  0.2697546714395  0.3714419839593  0.4858060689274 1.0
Ag     2 -0.2697546714395 -0.1285580160407 -0.4858060689274 1.0
Ag     2  0.4499789110535 -0.0634823538586  0.0024321638064 1.0
Ag     2 -0.4499789110535  0.4365176461414 -0.0024321638064 1.0
Ag     2 -0.0977703698221  0.4091001733688 -0.4798695654237 1.0
Ag     2  0.0977703698221 -0.0908998266312  0.4798695654237 1.0
END
