TITL 4Ag2Se-200724-053836-8c191f 0.0216 236.796766 -4.61324887E+004 0 0 12 (Pc) n - 1
REM
REM Run started: Fri, 24 Jul 2020 06:50:28 +0100 in /rds/user/bz240/hpc-work/airss-fw/launch_tmp/launcher_2020-07-24-04-38-35-180879
REM CASTEP 19.11| from code version Version unavailable
REM Functional Perdew Burke Ernzerhof Relativity Koelling-Harmon Dispersion off
REM Cut-off 300.0000 eV Grid scale 1.7500 Gmax 15.5288 1/A FBSC none
REM MP grid 3 3 3 Offset 0.000 0.000 0.000 No. kpts 10 Spacing 0.07
REM Total runtime: 4467.89 s
REM Overall efficiency: 79.4286 %
REM
REM 4Ag2Se.cell (6404a18c6b5dc90313b5c56acf317f23)
REM
REM compiler GCC version 4.8.5 20150623 (Red Hat 4.8.5-39)
REM options -cpp -mtune=generic -march=x86-64 -g -Og
REM COMMAND_LINE
REM seed 1060903141 -731891405 325652607 1913398160 -648891706 -487276362 -400527018 -1066253606 109035698 -1507242817 654430915 1493846239
REM
REM Se 3|2.1|7|7|9|40:41:32(qc=5)
REM Ag 3|2.2|7|7|9|40U:50:41:42(qc=5)
REM 
CELL 1.54180    5.61384    6.04893    6.98704   90.00000   86.40266   90.00000
LATT -1
SFAC Se Ag 
Se     1  0.2821549611952 -0.2809528958356 -0.2637404397290 1.0
Se     1 -0.2178450388048  0.2809528958356 -0.2637404397290 1.0
Se     1 -0.2658394143547 -0.2174183003000  0.3117316084153 1.0
Se     1  0.2341605856453  0.2174183003000  0.3117316084153 1.0
Ag     2  0.0477492552136 -0.0590200496582  0.0258930383471 1.0
Ag     2  0.5477492552136  0.0590200496582  0.0258930383471 1.0
Ag     2  0.2325107517905 -0.3059113802071  0.3438354915959 1.0
Ag     2 -0.2674892482095  0.3059113802071  0.3438354915959 1.0
Ag     2  0.2924631501798  0.1958640723942 -0.3061904965114 1.0
Ag     2 -0.2075368498202 -0.1958640723942 -0.3061904965114 1.0
Ag     2 -0.4240866040243 -0.4431952353240  0.0140701978821 1.0
Ag     2  0.0759133959757  0.4431952353240  0.0140701978821 1.0
END
