TITL 4Ag2Se-200724-034406-34ef78 -0.0132 244.931749 -4.61326136E+004 0 0 12 (Cc) n - 1
REM
REM Run started: Fri, 24 Jul 2020 05:47:41 +0100 in /scratch/scratch/uccabz1/launch_tmp/launcher_2020-07-24-02-44-04-321373
REM CASTEP 19.11| from code version Version unavailable
REM Functional Perdew Burke Ernzerhof Relativity Koelling-Harmon Dispersion off
REM Cut-off 300.0000 eV Grid scale 1.7500 Gmax 15.5288 1/A FBSC none
REM MP grid 3 3 3 Offset 0.000 0.000 0.000 No. kpts 10 Spacing 0.07
REM Total runtime: 7868.52 s
REM Overall efficiency: 96.5556 %
REM
REM 4Ag2Se.cell (6404a18c6b5dc90313b5c56acf317f23)
REM
REM compiler GCC version 4.9.2
REM options -cpp -iprefix /scratch/UCL/applications/gcc/4.9.2/bin/../lib/gcc/x86_64-unknown-linux-gnu/4.9.2/ -mtune=corei7 -march=x86-64 -g -O2
REM COMMAND_LINE
REM seed 247092980 951502230 -1040334561 -1060905886 -1195643320 -971874024 1895411267 -732982222 2117530117 -747889989 -1313467131 321078398
REM
REM Se 3|2.1|7|7|9|40:41:32(qc=5)
REM Ag 3|2.2|7|7|9|40U:50:41:42(qc=5)
REM 
CELL 1.54180    6.44299    7.21744    7.21744   59.98606   62.21484   62.21484
LATT -1
SFAC Se Ag 
Se     1 -0.1870686745442  0.0084340023934  0.4392932991320 1.0
Se     1  0.3129313254558  0.4392932991320  0.0084340023934 1.0
Se     1  0.0782241923805  0.2549880044739 -0.3149746879290 1.0
Se     1 -0.4217758076195 -0.3149746879290  0.2549880044739 1.0
Ag     2 -0.2114593589010  0.0019898249334 -0.0278860092963 1.0
Ag     2  0.2885406410990 -0.0278860092963  0.0019898249334 1.0
Ag     2 -0.2410211185941  0.3870053305294  0.0531967296766 1.0
Ag     2  0.2589788814059  0.0531967296766  0.3870053305294 1.0
Ag     2  0.0231674668274 -0.3558797989040  0.3068329820144 1.0
Ag     2 -0.4768325331726  0.3068329820144 -0.3558797989040 1.0
Ag     2  0.0586020928314 -0.3167404837593 -0.2806758932645 1.0
Ag     2 -0.4413979071686 -0.2806758932645 -0.3167404837593 1.0
END
