TITL 4Ag2Se_TETRA-200724-121544-5cf035 -0.0082 259.321335 -4.61325082E+004 0 0 12 (R3) n - 1
REM
REM Run started: Fri, 24 Jul 2020 13:19:24 +0100 in /scratch/scratch/uccabz1/launch_tmp/launcher_2020-07-24-12-10-06-594346
REM CASTEP 19.11| from code version Version unavailable
REM Functional Perdew Burke Ernzerhof Relativity Koelling-Harmon Dispersion off
REM Cut-off 300.0000 eV Grid scale 1.7500 Gmax 15.5288 1/A FBSC none
REM MP grid 3 3 3 Offset 0.000 0.000 0.000 No. kpts 6 Spacing 0.07
REM Total runtime: 863.43 s
REM Overall efficiency: 89.2 %
REM
REM
REM
REM compiler GCC version 4.8.5 20150623 (Red Hat 4.8.5-39)
REM options -cpp -mtune=generic -march=x86-64 -g -Og
REM COMMAND_LINE
REM seed 2033310061 1272987669 -342929690 644486917 -669222792 -1815574964 120499474 -395563784 -1242278853 -1889139091 -1107511127 -98963725
REM
REM Se 3|2.1|7|7|9|40:41:32(qc=5)
REM Ag 3|2.2|7|7|9|40U:50:41:42(qc=5)
REM 
CELL 1.54180    6.37720    6.37720    6.37720   89.48333   89.48333   89.48333
LATT -1
SFAC Se Ag 
Se     1 -0.3723851547797 -0.3093221351375  0.1742425819643 1.0
Se     1 -0.3093221351375  0.1742425819643 -0.3723851547797 1.0
Se     1  0.1742425819643 -0.3723851547797 -0.3093221351375 1.0
Se     1  0.1169039964033  0.1169039964033  0.1169039964033 1.0
Ag     2 -0.1245823964323  0.4200852560565 -0.0653037052761 1.0
Ag     2  0.4200852560565 -0.0653037052761 -0.1245823964323 1.0
Ag     2 -0.0653037052761 -0.1245823964323  0.4200852560565 1.0
Ag     2  0.4177568941482  0.3822234233473 -0.0280371888496 1.0
Ag     2  0.3822234233473 -0.0280371888496  0.4177568941482 1.0
Ag     2 -0.0280371888496  0.4177568941482  0.3822234233473 1.0
Ag     2 -0.1247720585936 -0.1247720585936 -0.1247720585936 1.0
Ag     2 -0.3967675128508 -0.3967675128508 -0.3967675128508 1.0
END
