TITL 4Ag2Se_TETRA-200724-153905-d926da -0.0205 253.186952 -4.61322493E+004 0 0 12 (P-1) n - 1
REM
REM Run started: Fri, 24 Jul 2020 16:54:51 +0100 in /rds/user/bz240/hpc-work/airss-fw/launch_tmp/launcher_2020-07-24-14-39-04-189010
REM CASTEP 19.11| from code version Version unavailable
REM Functional Perdew Burke Ernzerhof Relativity Koelling-Harmon Dispersion off
REM Cut-off 300.0000 eV Grid scale 1.7500 Gmax 15.5288 1/A FBSC none
REM MP grid 3 2 3 Offset 0.000 0.000 0.000 No. kpts 9 Spacing 0.07
REM Total runtime: 4986.93 s
REM Overall efficiency: 96.5 %
REM
REM 4Ag2Se_TETRA.cell (4020362940262d3df87d4014b41eb05e)
REM
REM compiler GCC version 4.8.5 20150623 (Red Hat 4.8.5-39)
REM options -cpp -mtune=generic -march=x86-64 -g -Og
REM COMMAND_LINE
REM seed -115009303 1175684014 572343238 41117802 -1660021405 1292392176 -718790024 -622519857 -1201385899 1346298397 -657217565 67790063
REM
REM Se 3|2.1|7|7|9|40:41:32(qc=5)
REM Ag 3|2.2|7|7|9|40U:50:41:42(qc=5)
REM 
CELL 1.54180    6.80928    7.14125    5.21140   88.83431   91.94683   90.89002
LATT -1
SFAC Se Ag 
Se     1 -0.2516096269894 -0.0412413236921  0.2483607073231 1.0
Se     1  0.2516096269894  0.0412413236921 -0.2483607073231 1.0
Se     1  0.2717776215632  0.4835878000664  0.2428478587143 1.0
Se     1 -0.2717776215632 -0.4835878000664 -0.2428478587143 1.0
Ag     2 -0.2037431881527  0.1749331211318 -0.3634460482605 1.0
Ag     2  0.2037431881527 -0.1749331211318  0.3634460482605 1.0
Ag     2  0.2110258099532  0.4691871072225 -0.2637714316936 1.0
Ag     2 -0.2110258099532 -0.4691871072225  0.2637714316936 1.0
Ag     2 -0.0362587665532 -0.1953426475788 -0.1467582841133 1.0
Ag     2  0.0362587665532  0.1953426475788  0.1467582841133 1.0
Ag     2 -0.5116165195518 -0.2247365500412 -0.0722843259353 1.0
Ag     2  0.5116165195518  0.2247365500412  0.0722843259353 1.0
END
