TITL 4Ag2Se_TETRA-200724-181742-8ab5a4 -0.0030 248.080522 -4.61323635E+004 0 0 12 (C2) n - 1
REM
REM Run started: Fri, 24 Jul 2020 19:09:41 +0100 in /rds/user/bz240/hpc-work/airss-fw/launch_tmp/launcher_2020-07-24-17-17-39-629020
REM CASTEP 19.11| from code version Version unavailable
REM Functional Perdew Burke Ernzerhof Relativity Koelling-Harmon Dispersion off
REM Cut-off 300.0000 eV Grid scale 1.7500 Gmax 15.5288 1/A FBSC none
REM MP grid 3 3 2 Offset 0.000 0.000 0.000 No. kpts 6 Spacing 0.07
REM Total runtime: 3428.14 s
REM Overall efficiency: 94.8333 %
REM
REM 4Ag2Se_TETRA.cell (4020362940262d3df87d4014b41eb05e)
REM
REM compiler GCC version 4.8.5 20150623 (Red Hat 4.8.5-39)
REM options -cpp -mtune=generic -march=x86-64 -g -Og
REM COMMAND_LINE
REM seed 600351866 573746556 -1535943666 -1020043192 -1342724359 -191814064 1072047652 -1074745347 -1798435191 -515741468 2009138578 17774280
REM
REM Se 3|2.1|7|7|9|40:41:32(qc=5)
REM Ag 3|2.2|7|7|9|40U:50:41:42(qc=5)
REM 
CELL 1.54180    4.98312    4.98312   10.01011   88.57526   88.57526   92.92432
LATT -1
SFAC Se Ag 
Se     1  0.2814304636477  0.2186346657790 -0.0935699425977 1.0
Se     1 -0.2186346657790 -0.2814304636477  0.0935699425977 1.0
Se     1 -0.0378771882682 -0.4640859670929 -0.4054019613017 1.0
Se     1  0.4640859670929  0.0378771882682  0.4054019613017 1.0
Ag     2 -0.1470197005752 -0.0150518895271 -0.2799657033550 1.0
Ag     2  0.0150518895271  0.1470197005752  0.2799657033550 1.0
Ag     2  0.2536611142732 -0.3321317645629  0.1942150952261 1.0
Ag     2  0.3321317645629 -0.2536611142732 -0.1942150952261 1.0
Ag     2 -0.4655730620249  0.1939786403781  0.1342908943938 1.0
Ag     2 -0.1939786403781  0.4655730620249 -0.1342908943938 1.0
Ag     2  0.4408735697779  0.3162068118564 -0.3703636127832 1.0
Ag     2 -0.3162068118564 -0.4408735697779  0.3703636127832 1.0
END
