TITL 4Ag2Se-200724-073532-7960cd 0.0252 273.670959 -4.61308886E+004 0 0 12 (R3) n - 1
REM
REM Run started: Fri, 24 Jul 2020 08:48:19 +0100 in /rds/user/bz240/hpc-work/airss-fw/launch_tmp/launcher_2020-07-24-06-35-29-439120
REM CASTEP 19.11| from code version Version unavailable
REM Functional Perdew Burke Ernzerhof Relativity Koelling-Harmon Dispersion off
REM Cut-off 300.0000 eV Grid scale 1.7500 Gmax 15.5288 1/A FBSC none
REM MP grid 3 3 3 Offset 0.000 0.000 0.000 No. kpts 6 Spacing 0.07
REM Total runtime: 5000.84 s
REM Overall efficiency: 96.8571 %
REM
REM 4Ag2Se.cell (6404a18c6b5dc90313b5c56acf317f23)
REM
REM compiler GCC version 4.8.5 20150623 (Red Hat 4.8.5-39)
REM options -cpp -mtune=generic -march=x86-64 -g -Og
REM COMMAND_LINE
REM seed -119357738 852966014 -1677786633 -1380204585 -1767812746 1457941949 1700665087 -1097416126 1819810179 2067323333 -606370715 1520148218
REM
REM Se 3|2.1|7|7|9|40:41:32(qc=5)
REM Ag 3|2.2|7|7|9|40U:50:41:42(qc=5)
REM 
CELL 1.54180    6.93170    6.93170    7.69878   63.24461   63.24461   60.00000
LATT -1
SFAC Se Ag 
Se     1  0.0111202116943  0.2642544664546  0.0010254206974 1.0
Se     1 -0.2764001988462  0.0111202116943  0.0010254206974 1.0
Se     1  0.2642544664546 -0.2764001988462  0.0010254206974 1.0
Se     1  0.5053946727103  0.5053946727103 -0.5161841181308 1.0
Ag     2  0.1628580245966 -0.0958216944271  0.3047137245779 1.0
Ag     2 -0.3717501547473  0.1628580245966  0.3047137245779 1.0
Ag     2 -0.0958216944271 -0.3717501547473  0.3047137245779 1.0
Ag     2  0.0415229993184 -0.4249462093796 -0.3499778853305 1.0
Ag     2 -0.2665990046082  0.0415229993184 -0.3499778853305 1.0
Ag     2 -0.4249462093796 -0.2665990046082 -0.3499778853305 1.0
Ag     2  0.3078262084884  0.3078262084884  0.0765212745347 1.0
Ag     2 -0.3491433879205 -0.3491433879205  0.0474300637616 1.0
END
