TITL 4Ag2Se_TETRA-200724-135348-f18418 0.0072 261.353335 -4.61314889E+004 0 0 12 (Aea2) n - 1
REM
REM Run started: Fri, 24 Jul 2020 14:44:49 +0100 in /scratch/scratch/uccabz1/launch_tmp/launcher_2020-07-24-12-53-46-203382
REM CASTEP 19.11| from code version Version unavailable
REM Functional Perdew Burke Ernzerhof Relativity Koelling-Harmon Dispersion off
REM Cut-off 300.0000 eV Grid scale 1.7500 Gmax 15.5288 1/A FBSC none
REM MP grid 3 2 3 Offset 0.000 0.000 0.000 No. kpts 4 Spacing 0.07
REM Total runtime: 3357.53 s
REM Overall efficiency: 94.5833 %
REM
REM 4Ag2Se_TETRA.cell (4020362940262d3df87d4014b41eb05e)
REM
REM compiler GCC version 4.9.2
REM options -cpp -iprefix /scratch/UCL/applications/gcc/4.9.2/bin/../lib/gcc/x86_64-unknown-linux-gnu/4.9.2/ -mtune=corei7 -march=x86-64 -g -O2
REM COMMAND_LINE
REM seed 445526549 -1716077019 -1981609899 1772599836 -144428468 1582843244 -2002331973 -4473969 1375978233 1706674775 1317238750 589211320
REM
REM Se 3|2.1|7|7|9|40:41:32(qc=5)
REM Ag 3|2.2|7|7|9|40U:50:41:42(qc=5)
REM 
CELL 1.54180    6.05935    7.20277    6.05935   90.00000   98.78448   90.00000
LATT -1
SFAC Se Ag 
Se     1  0.0759205433309  0.3481009493452  0.3917739884860 1.0
Se     1  0.3917739884860 -0.3481009493452  0.0759205433309 1.0
Se     1 -0.1082260115140 -0.1518990506548 -0.4240794566691 1.0
Se     1 -0.4240794566691  0.1518990506548 -0.1082260115140 1.0
Ag     2 -0.1149004810096  0.0410301835663  0.2050195503389 1.0
Ag     2  0.2050195503389 -0.0410301835663 -0.1149004810096 1.0
Ag     2 -0.2949804496611 -0.4589698164337  0.3850995189904 1.0
Ag     2  0.3850995189904  0.4589698164337 -0.2949804496611 1.0
Ag     2 -0.0759966673989  0.3069137577205 -0.2233993337471 1.0
Ag     2 -0.2233993337471 -0.3069137577205 -0.0759966673989 1.0
Ag     2  0.2766006662529 -0.1930862422795  0.4240033326011 1.0
Ag     2  0.4240033326011  0.1930862422795  0.2766006662529 1.0
END
