TITL 4Ag2Se-200724-035644-c59b40 0.0019 247.316752 -4.61326980E+004 0 0 12 (Cc) n - 1
REM
REM Run started: Fri, 24 Jul 2020 04:55:15 +0100 in /rds/user/bz240/hpc-work/airss-fw/launch_tmp/launcher_2020-07-24-02-56-42-488370
REM CASTEP 19.11| from code version Version unavailable
REM Functional Perdew Burke Ernzerhof Relativity Koelling-Harmon Dispersion off
REM Cut-off 300.0000 eV Grid scale 1.7500 Gmax 15.5288 1/A FBSC none
REM MP grid 3 3 2 Offset 0.000 0.000 0.000 No. kpts 6 Spacing 0.07
REM Total runtime: 3756.99 s
REM Overall efficiency: 96.1429 %
REM
REM 4Ag2Se.cell (6404a18c6b5dc90313b5c56acf317f23)
REM
REM compiler GCC version 4.8.5 20150623 (Red Hat 4.8.5-39)
REM options -cpp -mtune=generic -march=x86-64 -g -Og
REM COMMAND_LINE
REM seed -1725905761 -335025501 -1554970192 767603883 -135740744 387014250 -713356793 -891375280 -274540178 -398425175 1976737776 -1443202456
REM
REM Se 3|2.1|7|7|9|40:41:32(qc=5)
REM Ag 3|2.2|7|7|9|40U:50:41:42(qc=5)
REM 
CELL 1.54180    5.12124    5.12124    9.43110   89.42746   89.42746   89.51145
LATT -1
SFAC Se Ag 
Se     1 -0.2917313715984 -0.1692815934319  0.5071430957561 1.0
Se     1 -0.1692815934319 -0.2917313715984  0.0071430957561 1.0
Se     1  0.1658863434945  0.2292599339633 -0.2820757611317 1.0
Se     1  0.2292599339633  0.1658863434945  0.2179242388683 1.0
Ag     2 -0.3042398298734 -0.5088132475352 -0.2633530406346 1.0
Ag     2 -0.5088132475352 -0.3042398298734  0.2366469593654 1.0
Ag     2 -0.4710244812295 -0.0138499576813 -0.1485231937661 1.0
Ag     2 -0.0138499576813 -0.4710244812295  0.3514768062339 1.0
Ag     2 -0.2654849653862  0.1977917745378  0.1231441622206 1.0
Ag     2  0.1977917745378 -0.2654849653862 -0.3768558377794 1.0
Ag     2  0.4756385601791  0.3148998345611  0.4648816375555 1.0
Ag     2  0.3148998345611  0.4756385601791 -0.0351183624445 1.0
END
