TITL 4Ag2Se_TETRA-200724-135648-13fbe7 -0.0138 258.062494 -4.61315681E+004 0 0 12 (R3) n - 1
REM
REM Run started: Fri, 24 Jul 2020 14:45:36 +0100 in /scratch/scratch/uccabz1/launch_tmp/launcher_2020-07-24-12-56-46-217406
REM CASTEP 19.11| from code version Version unavailable
REM Functional Perdew Burke Ernzerhof Relativity Koelling-Harmon Dispersion off
REM Cut-off 300.0000 eV Grid scale 1.7500 Gmax 15.5288 1/A FBSC none
REM MP grid 3 3 3 Offset 0.000 0.000 0.000 No. kpts 6 Spacing 0.07
REM Total runtime: 3242.87 s
REM Overall efficiency: 93.5 %
REM
REM 4Ag2Se_TETRA.cell (4020362940262d3df87d4014b41eb05e)
REM
REM compiler GCC version 4.9.2
REM options -cpp -iprefix /scratch/UCL/applications/gcc/4.9.2/bin/../lib/gcc/x86_64-unknown-linux-gnu/4.9.2/ -mtune=corei7 -march=x86-64 -g -O2
REM COMMAND_LINE
REM seed -1041333574 -1500451062 1311527663 1145216748 -483917860 1307349255 1249832890 -1900688374 -804110735 171515026 -1552554864 2097508920
REM
REM Se 3|2.1|7|7|9|40:41:32(qc=5)
REM Ag 3|2.2|7|7|9|40U:50:41:42(qc=5)
REM 
CELL 1.54180    6.36672    6.36672    6.36672   89.66493   89.66493   89.66493
LATT -1
SFAC Se Ag 
Se     1  0.2661138059081 -0.2084990756650 -0.3204198108691 1.0
Se     1 -0.2084990756650 -0.3204198108691  0.2661138059081 1.0
Se     1 -0.3204198108691  0.2661138059081 -0.2084990756650 1.0
Se     1  0.1987862163500  0.1987862163500  0.1987862163500 1.0
Ag     2 -0.2746155601601  0.2324927201211  0.2206965011465 1.0
Ag     2  0.2324927201211  0.2206965011465 -0.2746155601601 1.0
Ag     2  0.2206965011465 -0.2746155601601  0.2324927201211 1.0
Ag     2  0.0189593633357 -0.4713675814051 -0.0799710871740 1.0
Ag     2 -0.4713675814051 -0.0799710871740  0.0189593633357 1.0
Ag     2 -0.0799710871740  0.0189593633357 -0.4713675814051 1.0
Ag     2  0.4548785649256  0.4548785649256  0.4548785649256 1.0
Ag     2 -0.2992710565137 -0.2992710565137 -0.2992710565137 1.0
END
