TITL 4Ag2Se-200724-044714-c0ad8e -0.0555 234.307887 -4.61326179E+004 0 0 12 (Pc) n - 1
REM
REM Run started: Fri, 24 Jul 2020 07:56:20 +0100 in /scratch/scratch/uccabz1/launch_tmp/launcher_2020-07-24-03-47-13-347470
REM CASTEP 19.11| from code version Version unavailable
REM Functional Perdew Burke Ernzerhof Relativity Koelling-Harmon Dispersion off
REM Cut-off 300.0000 eV Grid scale 1.7500 Gmax 15.5288 1/A FBSC none
REM MP grid 3 3 3 Offset 0.000 0.000 0.000 No. kpts 10 Spacing 0.07
REM Total runtime: 12420.7 s
REM Overall efficiency: 97 %
REM
REM 4Ag2Se.cell (6404a18c6b5dc90313b5c56acf317f23)
REM
REM compiler GCC version 4.9.2
REM options -cpp -iprefix /scratch/UCL/applications/gcc/4.9.2/bin/../lib/gcc/x86_64-unknown-linux-gnu/4.9.2/ -mtune=corei7 -march=x86-64 -g -O2
REM COMMAND_LINE
REM seed -1929578095 -428500392 -1453305062 1765029442 1246971121 -512371501 295134348 -53988868 -37151044 597583803 1191013213 1359306336
REM
REM Se 3|2.1|7|7|9|40:41:32(qc=5)
REM Ag 3|2.2|7|7|9|40U:50:41:42(qc=5)
REM 
CELL 1.54180    5.87244    5.67124    7.13801   90.00000   99.72516   90.00000
LATT -1
SFAC Se Ag 
Se     1  0.2112959480116  0.2618294320515  0.2287936973285 1.0
Se     1 -0.2887040519884 -0.2618294320515  0.2287936973285 1.0
Se     1 -0.0172257048083 -0.2351836448035 -0.2075001091395 1.0
Se     1  0.4827742951917  0.2351836448035 -0.2075001091395 1.0
Ag     2  0.1563408664764 -0.4577503240158  0.5212990655647 1.0
Ag     2 -0.3436591335236  0.4577503240158  0.5212990655647 1.0
Ag     2  0.5075375045955 -0.0424268624244 -0.5128380017380 1.0
Ag     2  0.0075375045955  0.0424268624244 -0.5128380017380 1.0
Ag     2  0.4846484095326 -0.2626283957799 -0.1489287287233 1.0
Ag     2 -0.0153515904674  0.2626283957799 -0.1489287287233 1.0
Ag     2 -0.2949754238077  0.2421169609144  0.1571497767075 1.0
Ag     2  0.2050245761923 -0.2421169609144  0.1571497767075 1.0
END
