TITL 4Ag2Se_TETRA-200724-140646-90c1f0 -0.0301 262.523705 -4.61313567E+004 0 0 12 (P2) n - 1
REM
REM Run started: Fri, 24 Jul 2020 15:00:48 +0100 in /scratch/scratch/uccabz1/launch_tmp/launcher_2020-07-24-13-06-44-458659
REM CASTEP 19.11| from code version Version unavailable
REM Functional Perdew Burke Ernzerhof Relativity Koelling-Harmon Dispersion off
REM Cut-off 300.0000 eV Grid scale 1.7500 Gmax 15.5288 1/A FBSC none
REM MP grid 3 3 2 Offset 0.000 0.000 0.000 No. kpts 6 Spacing 0.07
REM Total runtime: 3569.52 s
REM Overall efficiency: 93.1667 %
REM
REM 4Ag2Se_TETRA.cell (4020362940262d3df87d4014b41eb05e)
REM
REM compiler GCC version 4.9.2
REM options -cpp -iprefix /scratch/UCL/applications/gcc/4.9.2/bin/../lib/gcc/x86_64-unknown-linux-gnu/4.9.2/ -mtune=corei7 -march=x86-64 -g -O2
REM COMMAND_LINE
REM seed -1035120072 -125171110 -2039218323 -1280027901 661594362 1732339720 1898491197 868507049 711482205 641244498 -352807816 -1596132215
REM
REM Se 3|2.1|7|7|9|40:41:32(qc=5)
REM Ag 3|2.2|7|7|9|40U:50:41:42(qc=5)
REM 
CELL 1.54180    5.32079    5.14923    9.58439   91.31762   90.00000   90.00000
LATT -1
SFAC Se Ag 
Se     1 -0.4402434872664 -0.2464585332749 -0.1614475874862 1.0
Se     1 -0.4402434872664  0.2464585332749  0.1614475874862 1.0
Se     1  0.0552889972272 -0.2371849248309  0.3265656936101 1.0
Se     1  0.0552889972272  0.2371849248309 -0.3265656936101 1.0
Ag     2 -0.0888999016928 -0.2517920656603 -0.3982736611014 1.0
Ag     2 -0.0888999016928  0.2517920656603  0.3982736611014 1.0
Ag     2  0.3732923452547  0.2494884456108 -0.1154562516086 1.0
Ag     2  0.3732923452547 -0.2494884456108  0.1154562516086 1.0
Ag     2 -0.1242227638160  0.2477632799480 -0.0533933102241 1.0
Ag     2 -0.1242227638160 -0.2477632799480  0.0533933102241 1.0
Ag     2 -0.4565783897067 -0.3422189466100  0.3844730800382 1.0
Ag     2 -0.4565783897067  0.3422189466100 -0.3844730800382 1.0
END
