TITL 4Ag2Se-200724-031052-db13d0 0.0866 260.365992 -4.61326221E+004 0 0 12 (R3) n - 1
REM
REM Run started: Fri, 24 Jul 2020 04:03:57 +0100 in /rds/user/bz240/hpc-work/airss-fw/launch_tmp/launcher_2020-07-24-02-10-50-727368
REM CASTEP 19.11| from code version Version unavailable
REM Functional Perdew Burke Ernzerhof Relativity Koelling-Harmon Dispersion off
REM Cut-off 300.0000 eV Grid scale 1.7500 Gmax 15.5288 1/A FBSC none
REM MP grid 3 3 3 Offset 0.000 0.000 0.000 No. kpts 6 Spacing 0.07
REM Total runtime: 3211.84 s
REM Overall efficiency: 92.8571 %
REM
REM 4Ag2Se.cell (6404a18c6b5dc90313b5c56acf317f23)
REM
REM compiler GCC version 4.8.5 20150623 (Red Hat 4.8.5-39)
REM options -cpp -mtune=generic -march=x86-64 -g -Og
REM COMMAND_LINE
REM seed -166347729 1730240879 -2096214594 1825776267 503502049 1583437262 -1285294760 939616962 -754406222 -1228507545 -668095936 -158219494
REM
REM Se 3|2.1|7|7|9|40:41:32(qc=5)
REM Ag 3|2.2|7|7|9|40U:50:41:42(qc=5)
REM 
CELL 1.54180    6.38578    6.38578    6.38578   89.46028   89.46028   89.46028
LATT -1
SFAC Se Ag 
Se     1  0.1410609101732 -0.3026610461398  0.1748042277589 1.0
Se     1  0.1748042277589  0.1410609101732 -0.3026610461398 1.0
Se     1 -0.3026610461398  0.1748042277589  0.1410609101732 1.0
Se     1 -0.3322490757064 -0.3322490757064 -0.3322490757064 1.0
Ag     2 -0.1380964298651 -0.0199716195789  0.4838080801920 1.0
Ag     2  0.4838080801920 -0.1380964298651 -0.0199716195789 1.0
Ag     2 -0.0199716195789  0.4838080801920 -0.1380964298651 1.0
Ag     2  0.4230374507779  0.4188561372773 -0.0790610617834 1.0
Ag     2 -0.0790610617834  0.4230374507779  0.4188561372773 1.0
Ag     2  0.4188561372773 -0.0790610617834  0.4230374507779 1.0
Ag     2  0.1254143797370  0.1254143797370  0.1254143797370 1.0
Ag     2  0.4010158471573  0.4010158471573  0.4010158471573 1.0
END
