TITL 4Ag2Se_TETRA-200724-155448-96081a -0.0341 252.157850 -4.61320903E+004 0 0 12 (Pc) n - 1
REM
REM Run started: Fri, 24 Jul 2020 17:07:35 +0100 in /scratch/scratch/uccabz1/launch_tmp/launcher_2020-07-24-14-54-46-890421
REM CASTEP 19.11| from code version Version unavailable
REM Functional Perdew Burke Ernzerhof Relativity Koelling-Harmon Dispersion off
REM Cut-off 300.0000 eV Grid scale 1.7500 Gmax 15.5288 1/A FBSC none
REM MP grid 3 3 3 Offset 0.000 0.000 0.000 No. kpts 10 Spacing 0.07
REM Total runtime: 4810.5 s
REM Overall efficiency: 95.25 %
REM
REM 4Ag2Se_TETRA.cell (4020362940262d3df87d4014b41eb05e)
REM
REM compiler GCC version 4.9.2
REM options -cpp -iprefix /scratch/UCL/applications/gcc/4.9.2/bin/../lib/gcc/x86_64-unknown-linux-gnu/4.9.2/ -mtune=corei7 -march=x86-64 -g -O2
REM COMMAND_LINE
REM seed 396431071 -414921277 -1056027939 -100193168 -1872410066 -1130382380 424706158 -931225205 1576426039 632330848 471448690 -475588292
REM
REM Se 3|2.1|7|7|9|40:41:32(qc=5)
REM Ag 3|2.2|7|7|9|40U:50:41:42(qc=5)
REM 
CELL 1.54180    6.07531    6.12092    6.78091   90.05820   90.00000   90.00000
LATT -1
SFAC Se Ag 
Se     1 -0.2969042516798  0.3095678954985 -0.2694881421421 1.0
Se     1  0.2969042516798  0.3095678954985  0.2305118578579 1.0
Se     1  0.3034332148262 -0.1634750240895 -0.3816560625719 1.0
Se     1 -0.3034332148262 -0.1634750240895  0.1183439374281 1.0
Ag     2 -0.0898539577744  0.0062835009726  0.4095995693034 1.0
Ag     2  0.0898539577744  0.0062835009726 -0.0904004306966 1.0
Ag     2  0.0655379975685  0.4148490102521 -0.4529712966535 1.0
Ag     2 -0.0655379975685  0.4148490102521  0.0470287033465 1.0
Ag     2  0.2484450496022 -0.2436395187735  0.2326331959272 1.0
Ag     2 -0.2484450496022 -0.2436395187735 -0.2673668040728 1.0
Ag     2 -0.3420246626524 -0.4768280638603  0.3766765361370 1.0
Ag     2  0.3420246626524 -0.4768280638603 -0.1233234638630 1.0
END
