TITL 4Ag2Se_TETRA-200724-181058-54a7c3 -0.0086 249.925038 -4.61325417E+004 0 0 12 (R3) n - 1
REM
REM Run started: Fri, 24 Jul 2020 19:01:06 +0100 in /rds/user/bz240/hpc-work/airss-fw/launch_tmp/launcher_2020-07-24-17-10-56-284813
REM CASTEP 19.11| from code version Version unavailable
REM Functional Perdew Burke Ernzerhof Relativity Koelling-Harmon Dispersion off
REM Cut-off 300.0000 eV Grid scale 1.7500 Gmax 15.5288 1/A FBSC none
REM MP grid 3 3 3 Offset 0.000 0.000 0.000 No. kpts 6 Spacing 0.07
REM Total runtime: 3320.88 s
REM Overall efficiency: 94.25 %
REM
REM 4Ag2Se_TETRA.cell (4020362940262d3df87d4014b41eb05e)
REM
REM compiler GCC version 4.8.5 20150623 (Red Hat 4.8.5-39)
REM options -cpp -mtune=generic -march=x86-64 -g -Og
REM COMMAND_LINE
REM seed 1937955679 -1194809905 -432360109 2053516091 -1846733224 1700106166 -529058675 1738561150 472399877 795245912 226566458 -2118493280
REM
REM Se 3|2.1|7|7|9|40:41:32(qc=5)
REM Ag 3|2.2|7|7|9|40U:50:41:42(qc=5)
REM 
CELL 1.54180    6.29908    6.29908    6.29908   90.33178   90.33178   90.33178
LATT -1
SFAC Se Ag 
Se     1 -0.1170351688852  0.3605756175858  0.3662117588792 1.0
Se     1  0.3662117588792 -0.1170351688852  0.3605756175858 1.0
Se     1  0.3605756175858  0.3662117588792 -0.1170351688852 1.0
Se     1 -0.1099799113475 -0.1099799113475 -0.1099799113475 1.0
Ag     2  0.3214710448148 -0.0555273439160 -0.0872928171134 1.0
Ag     2 -0.0872928171134  0.3214710448148 -0.0555273439160 1.0
Ag     2 -0.0555273439160 -0.0872928171134  0.3214710448148 1.0
Ag     2 -0.3810061742836 -0.3578669061294  0.1013334488812 1.0
Ag     2  0.1013334488812 -0.3810061742836 -0.3578669061294 1.0
Ag     2 -0.3578669061294  0.1013334488812 -0.3810061742836 1.0
Ag     2  0.2937426542534  0.2937426542534  0.2937426542534 1.0
Ag     2 -0.4354956027393 -0.4354956027393 -0.4354956027393 1.0
END
