TITL 4Ag2Se_TETRA-200724-172316-522f40 0.0507 243.291179 -4.61323452E+004 0 0 12 (P21/c) n - 1
REM
REM Run started: Fri, 24 Jul 2020 18:12:46 +0100 in /scratch/scratch/uccabz1/launch_tmp/launcher_2020-07-24-16-23-15-256000
REM CASTEP 19.11| from code version Version unavailable
REM Functional Perdew Burke Ernzerhof Relativity Koelling-Harmon Dispersion off
REM Cut-off 300.0000 eV Grid scale 1.7500 Gmax 15.5288 1/A FBSC none
REM MP grid 3 3 2 Offset 0.000 0.000 0.000 No. kpts 6 Spacing 0.07
REM Total runtime: 3300.77 s
REM Overall efficiency: 93.8333 %
REM
REM 4Ag2Se_TETRA.cell (4020362940262d3df87d4014b41eb05e)
REM
REM compiler GCC version 4.9.2
REM options -cpp -iprefix /scratch/UCL/applications/gcc/4.9.2/bin/../lib/gcc/x86_64-unknown-linux-gnu/4.9.2/ -mtune=corei7 -march=x86-64 -g -O2
REM COMMAND_LINE
REM seed 1055625320 -731860440 -238230966 -270022161 -603781497 -2010788247 1424467461 -14138324 1622536326 -1866936878 1977888384 510887447
REM
REM Se 3|2.1|7|7|9|40:41:32(qc=5)
REM Ag 3|2.2|7|7|9|40U:50:41:42(qc=5)
REM 
CELL 1.54180    5.16776    6.35104    7.42562   90.00000   86.62557   90.00000
LATT -1
SFAC Se Ag 
Se     1 -0.4874151257896 -0.2226567886502 -0.1568555471311 1.0
Se     1 -0.4874151257896  0.2226567886502  0.3431444528689 1.0
Se     1  0.0999134257896  0.2773432113498 -0.0884391528689 1.0
Se     1  0.0999134257896 -0.2773432113498  0.4115608471311 1.0
Ag     2 -0.4473533482236 -0.1782177221826  0.2011501701403 1.0
Ag     2 -0.4473533482236  0.1782177221826 -0.2988498298597 1.0
Ag     2  0.0097611583340  0.0881590591680  0.2283970887804 1.0
Ag     2  0.0097611583340 -0.0881590591680 -0.2716029112196 1.0
Ag     2  0.0598516482236 -0.3217822778174  0.0535551298597 1.0
Ag     2  0.0598516482236  0.3217822778174 -0.4464448701403 1.0
Ag     2 -0.3972628583340  0.4118409408320  0.0263082112196 1.0
Ag     2 -0.3972628583340 -0.4118409408320 -0.4736917887804 1.0
END
