TITL 4Ag2Se_TETRA-200724-164049-a6fe1b 0.0150 245.285898 -4.61319919E+004 0 0 12 (Pna21) n - 1
REM
REM Run started: Fri, 24 Jul 2020 17:41:08 +0100 in /scratch/scratch/uccabz1/launch_tmp/launcher_2020-07-24-15-40-47-840395
REM CASTEP 19.11| from code version Version unavailable
REM Functional Perdew Burke Ernzerhof Relativity Koelling-Harmon Dispersion off
REM Cut-off 300.0000 eV Grid scale 1.7500 Gmax 15.5288 1/A FBSC none
REM MP grid 2 2 3 Offset 0.000 0.000 0.000 No. kpts 2 Spacing 0.07
REM Total runtime: 3715.17 s
REM Overall efficiency: 93.1667 %
REM
REM 4Ag2Se_TETRA.cell (4020362940262d3df87d4014b41eb05e)
REM
REM compiler GCC version 4.9.2
REM options -cpp -iprefix /scratch/UCL/applications/gcc/4.9.2/bin/../lib/gcc/x86_64-unknown-linux-gnu/4.9.2/ -mtune=corei7 -march=x86-64 -g -O2
REM COMMAND_LINE
REM seed -1436495902 -1155080448 -2065372899 733865030 -1145693945 -91598286 1177865051 -186786581 1388116760 111284701 1340294827 1762500578
REM
REM Se 3|2.1|7|7|9|40:41:32(qc=5)
REM Ag 3|2.2|7|7|9|40U:50:41:42(qc=5)
REM 
CELL 1.54180    7.18050    7.16304    4.76892   90.00000   90.00000   90.00000
LATT -1
SFAC Se Ag 
Se     1  0.2913605073127  0.0741676970514  0.1078735967173 1.0
Se     1 -0.2086394926873 -0.0741676970514 -0.1078735967173 1.0
Se     1  0.2913605073127 -0.4258323029486  0.3921264032827 1.0
Se     1 -0.2086394926873  0.4258323029486 -0.3921264032827 1.0
Ag     2  0.1426021091515  0.2777283046914 -0.3066250840484 1.0
Ag     2 -0.3573978908485 -0.2777283046914  0.3066250840484 1.0
Ag     2  0.1426021091515 -0.2222716953086 -0.1933749159516 1.0
Ag     2 -0.3573978908485  0.2222716953086  0.1933749159516 1.0
Ag     2 -0.0483555164642  0.0034855861432  0.3854003539511 1.0
Ag     2  0.4516444835358 -0.0034855861432 -0.3854003539511 1.0
Ag     2 -0.0483555164642 -0.4965144138568  0.1145996460489 1.0
Ag     2  0.4516444835358  0.4965144138568 -0.1145996460489 1.0
END
