TITL 4Ag2Se-200724-072457-7eb20a -0.2585 239.292439 -4.61327620E+004 0 0 12 (P21) n - 1
REM
REM Run started: Fri, 24 Jul 2020 09:30:04 +0100 in /scratch/scratch/uccabz1/launch_tmp/launcher_2020-07-24-06-24-55-431649
REM CASTEP 19.11| from code version Version unavailable
REM Functional Perdew Burke Ernzerhof Relativity Koelling-Harmon Dispersion off
REM Cut-off 300.0000 eV Grid scale 1.7500 Gmax 15.5288 1/A FBSC none
REM MP grid 4 2 2 Offset 0.000 0.000 0.000 No. kpts 4 Spacing 0.07
REM Total runtime: 8321.05 s
REM Overall efficiency: 95.8333 %
REM
REM 4Ag2Se.cell (6404a18c6b5dc90313b5c56acf317f23)
REM
REM compiler GCC version 4.9.2
REM options -cpp -iprefix /scratch/UCL/applications/gcc/4.9.2/bin/../lib/gcc/x86_64-unknown-linux-gnu/4.9.2/ -mtune=corei7 -march=x86-64 -g -O2
REM COMMAND_LINE
REM seed 353888248 948385382 797766798 643191924 522543346 -1355565225 -2131502584 1298017431 -1366344140 -497282967 -90294444 643965304
REM
REM Se 3|2.1|7|7|9|40:41:32(qc=5)
REM Ag 3|2.2|7|7|9|40U:50:41:42(qc=5)
REM 
CELL 1.54180    4.38218    7.55277    7.23010   89.57483   90.00000   90.00000
LATT -1
SFAC Se Ag 
Se     1 -0.4367875802416 -0.3392227625823  0.2626531893023 1.0
Se     1  0.0632124197584  0.3392227625823 -0.2626531893023 1.0
Se     1 -0.6753318494437 -0.1620665120131 -0.2374006311668 1.0
Se     1 -0.1753318494437  0.1620665120131  0.2374006311668 1.0
Ag     2 -0.3952701433539 -0.4612158913053 -0.1277829598496 1.0
Ag     2  0.1047298566461  0.4612158913053  0.1277829598496 1.0
Ag     2  0.4321565530721  0.1486814679168 -0.0387522155278 1.0
Ag     2 -0.0678434469279 -0.1486814679168  0.0387522155278 1.0
Ag     2  0.4481397088543  0.3464799034821  0.4599074418668 1.0
Ag     2 -0.0518602911457 -0.3464799034821 -0.4599074418668 1.0
Ag     2 -0.2172109888872  0.0406263820010 -0.3721053871076 1.0
Ag     2  0.2827890111128 -0.0406263820010  0.3721053871076 1.0
END
