TITL 4Ag2Se_TETRA-200724-164205-678b7e -0.0298 245.928499 -4.61324553E+004 0 0 12 (P21) n - 1
REM
REM Run started: Fri, 24 Jul 2020 17:53:08 +0100 in /scratch/scratch/uccabz1/launch_tmp/launcher_2020-07-24-15-42-03-366276
REM CASTEP 19.11| from code version Version unavailable
REM Functional Perdew Burke Ernzerhof Relativity Koelling-Harmon Dispersion off
REM Cut-off 300.0000 eV Grid scale 1.7500 Gmax 15.5288 1/A FBSC none
REM MP grid 3 3 3 Offset 0.000 0.000 0.000 No. kpts 10 Spacing 0.07
REM Total runtime: 4725.12 s
REM Overall efficiency: 94.9167 %
REM
REM 4Ag2Se_TETRA.cell (4020362940262d3df87d4014b41eb05e)
REM
REM compiler GCC version 4.9.2
REM options -cpp -iprefix /scratch/UCL/applications/gcc/4.9.2/bin/../lib/gcc/x86_64-unknown-linux-gnu/4.9.2/ -mtune=corei7 -march=x86-64 -g -O2
REM COMMAND_LINE
REM seed -1746871901 -133316730 2104423289 -1422633480 -55539912 1923431331 -614452338 -1133955649 972119025 710577246 2131312262 -1064509848
REM
REM Se 3|2.1|7|7|9|40:41:32(qc=5)
REM Ag 3|2.2|7|7|9|40U:50:41:42(qc=5)
REM 
CELL 1.54180    6.07673    6.15976    6.57238   90.00000   90.00000   88.50853
LATT -1
SFAC Se Ag 
Se     1 -0.4813646190767 -0.2615480722873  0.0382799117153 1.0
Se     1  0.4813646190767  0.2615480722873 -0.4617200882847 1.0
Se     1 -0.0127368235270 -0.2580651054520  0.4700903588163 1.0
Se     1  0.0127368235270  0.2580651054520 -0.0299096411837 1.0
Ag     2 -0.2514751952293  0.0858478645147  0.2540384883651 1.0
Ag     2  0.2514751952293 -0.0858478645147 -0.2459615116349 1.0
Ag     2  0.4631283628783  0.3257679396050 -0.0466616619501 1.0
Ag     2 -0.4631283628783 -0.3257679396050  0.4533383380499 1.0
Ag     2  0.2512490298899  0.0287494812186  0.2554816102232 1.0
Ag     2 -0.2512490298899 -0.0287494812186 -0.2445183897768 1.0
Ag     2 -0.0186738247901 -0.3235768749905  0.0565134928302 1.0
Ag     2  0.0186738247901  0.3235768749905 -0.4434865071698 1.0
END
