TITL 4Ag2Se_TETRA-200724-155851-558d4b -0.0224 257.747159 -4.61324240E+004 0 0 12 (P-1) n - 1
REM
REM Run started: Fri, 24 Jul 2020 17:32:32 +0100 in /rds/user/bz240/hpc-work/airss-fw/launch_tmp/launcher_2020-07-24-14-58-49-653334
REM CASTEP 19.11| from code version Version unavailable
REM Functional Perdew Burke Ernzerhof Relativity Koelling-Harmon Dispersion off
REM Cut-off 300.0000 eV Grid scale 1.7500 Gmax 15.5288 1/A FBSC none
REM MP grid 3 3 3 Offset 0.000 0.000 0.000 No. kpts 14 Spacing 0.07
REM Total runtime: 6218.89 s
REM Overall efficiency: 96.8333 %
REM
REM 4Ag2Se_TETRA.cell (4020362940262d3df87d4014b41eb05e)
REM
REM compiler GCC version 4.8.5 20150623 (Red Hat 4.8.5-39)
REM options -cpp -mtune=generic -march=x86-64 -g -Og
REM COMMAND_LINE
REM seed 1375338308 -895349121 -138434816 650521953 -1052793040 206797589 -210564431 307702344 -401877730 464781823 1333043901 1601448742
REM
REM Se 3|2.1|7|7|9|40:41:32(qc=5)
REM Ag 3|2.2|7|7|9|40U:50:41:42(qc=5)
REM 
CELL 1.54180    6.71999    6.60106    5.81228   91.39403   90.07447   90.29811
LATT -1
SFAC Se Ag 
Se     1  0.1959611448618  0.4583875326134 -0.2547336255422 1.0
Se     1 -0.1959611448618 -0.4583875326134  0.2547336255422 1.0
Se     1 -0.2650986865045 -0.0329290815797 -0.2233087432803 1.0
Se     1  0.2650986865045  0.0329290815797  0.2233087432803 1.0
Ag     2 -0.3879190804547  0.2347975985887  0.0818149382361 1.0
Ag     2  0.3879190804547 -0.2347975985887 -0.0818149382361 1.0
Ag     2 -0.2178141404568 -0.4338754501121 -0.2042335374750 1.0
Ag     2  0.2178141404568  0.4338754501121  0.2042335374750 1.0
Ag     2  0.0799762544246 -0.2139115861271  0.4943864152383 1.0
Ag     2 -0.0799762544246  0.2139115861271 -0.4943864152383 1.0
Ag     2 -0.4800727018357 -0.2253923644449  0.4221313621208 1.0
Ag     2  0.4800727018357  0.2253923644449 -0.4221313621208 1.0
END
