TITL 4Ag2Se-200724-074840-cc863a -0.0384 255.958939 -4.61325120E+004 0 0 12 (R3) n - 1
REM
REM Run started: Fri, 24 Jul 2020 08:15:13 +0100 in /scratch/scratch/uccabz1/launch_tmp/launcher_2020-07-24-06-48-39-021354
REM CASTEP 19.11| from code version Version unavailable
REM Functional Perdew Burke Ernzerhof Relativity Koelling-Harmon Dispersion off
REM Cut-off 300.0000 eV Grid scale 1.7500 Gmax 15.5288 1/A FBSC none
REM MP grid 3 3 3 Offset 0.000 0.000 0.000 No. kpts 6 Spacing 0.07
REM Total runtime: 1704.43 s
REM Overall efficiency: 92.3333 %
REM
REM 4Ag2Se.cell (6404a18c6b5dc90313b5c56acf317f23)
REM
REM compiler GCC version 4.9.2
REM options -cpp -iprefix /scratch/UCL/applications/gcc/4.9.2/bin/../lib/gcc/x86_64-unknown-linux-gnu/4.9.2/ -mtune=corei7 -march=x86-64 -g -O2
REM COMMAND_LINE
REM seed 47478331 1686951835 -1084475495 1728381746 655686376 549679946 179162536 -558352270 -206828601 -2122371672 -434376723 -713845928
REM
REM Se 3|2.1|7|7|9|40:41:32(qc=5)
REM Ag 3|2.2|7|7|9|40U:50:41:42(qc=5)
REM 
CELL 1.54180    6.34929    6.34929    6.34929   89.82800   89.82800   89.82800
LATT -1
SFAC Se Ag 
Se     1 -0.1706649421610 -0.1148891374542  0.3299963511449 1.0
Se     1  0.3299963511449 -0.1706649421610 -0.1148891374542 1.0
Se     1 -0.1148891374542  0.3299963511449 -0.1706649421610 1.0
Se     1  0.4149815326288  0.4149815326288  0.4149815326288 1.0
Ag     2  0.3863933265564 -0.1862395796823  0.3319318444062 1.0
Ag     2  0.3319318444062  0.3863933265564 -0.1862395796823 1.0
Ag     2 -0.1862395796823  0.3319318444062  0.3863933265564 1.0
Ag     2 -0.3910326126159  0.0973938741376  0.0218698537592 1.0
Ag     2  0.0218698537592 -0.3910326126159  0.0973938741376 1.0
Ag     2  0.0973938741376  0.0218698537592 -0.3910326126159 1.0
Ag     2  0.1711635421190  0.1711635421190  0.1711635421190 1.0
Ag     2 -0.2997401528386 -0.2997401528386 -0.2997401528386 1.0
END
