TITL 4Ag2Se_TETRA-200724-123623-76516c 0.0010 247.456562 -4.61322382E+004 0 0 12 (P2) n - 1
REM
REM Run started: Fri, 24 Jul 2020 13:46:01 +0100 in /scratch/scratch/uccabz1/launch_tmp/launcher_2020-07-24-11-36-21-163864
REM CASTEP 19.11| from code version Version unavailable
REM Functional Perdew Burke Ernzerhof Relativity Koelling-Harmon Dispersion off
REM Cut-off 300.0000 eV Grid scale 1.7500 Gmax 15.5288 1/A FBSC none
REM MP grid 3 3 3 Offset 0.000 0.000 0.000 No. kpts 10 Spacing 0.07
REM Total runtime: 4628.25 s
REM Overall efficiency: 95.0833 %
REM
REM 4Ag2Se_TETRA.cell (4020362940262d3df87d4014b41eb05e)
REM
REM compiler GCC version 4.9.2
REM options -cpp -iprefix /scratch/UCL/applications/gcc/4.9.2/bin/../lib/gcc/x86_64-unknown-linux-gnu/4.9.2/ -mtune=corei7 -march=x86-64 -g -O2
REM COMMAND_LINE
REM seed 975465270 -599883043 -577583196 2136830833 -1099325401 753071071 328113875 912428308 222598579 -992389928 1292132700 66120778
REM
REM Se 3|2.1|7|7|9|40:41:32(qc=5)
REM Ag 3|2.2|7|7|9|40U:50:41:42(qc=5)
REM 
CELL 1.54180    6.93612    6.98794    5.10759   91.66183   90.00000   90.00000
LATT -1
SFAC Se Ag 
Se     1  0.0988172930097  0.2576662055705 -0.1808174956434 1.0
Se     1  0.0988172930097 -0.2576662055705  0.1808174956434 1.0
Se     1 -0.4543605003671 -0.2079156173290 -0.2743368395228 1.0
Se     1 -0.4543605003671  0.2079156173290  0.2743368395228 1.0
Ag     2 -0.2643489324431  0.1337615435270 -0.2167519477052 1.0
Ag     2 -0.2643489324431 -0.1337615435270  0.2167519477052 1.0
Ag     2 -0.1390819566796  0.4254590991885  0.2482938390097 1.0
Ag     2 -0.1390819566796 -0.4254590991885 -0.2482938390097 1.0
Ag     2  0.1557854114575  0.1387136255526  0.3095717190329 1.0
Ag     2  0.1557854114575 -0.1387136255526 -0.3095717190329 1.0
Ag     2  0.4455599850226  0.4188444916281 -0.2516962252415 1.0
Ag     2  0.4455599850226 -0.4188444916281  0.2516962252415 1.0
END
