TITL 4Ag2Se_TETRA-200724-153643-7834ff 0.0120 261.289517 -4.61320211E+004 0 0 12 (Cm) n - 1
REM
REM Run started: Fri, 24 Jul 2020 16:34:26 +0100 in /scratch/scratch/uccabz1/launch_tmp/launcher_2020-07-24-14-36-41-589633
REM CASTEP 19.11| from code version Version unavailable
REM Functional Perdew Burke Ernzerhof Relativity Koelling-Harmon Dispersion off
REM Cut-off 300.0000 eV Grid scale 1.7500 Gmax 15.5288 1/A FBSC none
REM MP grid 4 2 2 Offset 0.000 0.000 0.000 No. kpts 4 Spacing 0.07
REM Total runtime: 3847.24 s
REM Overall efficiency: 94.0833 %
REM
REM 4Ag2Se_TETRA.cell (4020362940262d3df87d4014b41eb05e)
REM
REM compiler GCC version 4.9.2
REM options -cpp -iprefix /scratch/UCL/applications/gcc/4.9.2/bin/../lib/gcc/x86_64-unknown-linux-gnu/4.9.2/ -mtune=corei7 -march=x86-64 -g -O2
REM COMMAND_LINE
REM seed -2023529126 -1779413471 -1138227277 -1456682009 827784027 1003903382 -964530336 -1321638095 -32656310 -1060524997 -102822845 -751349850
REM
REM Se 3|2.1|7|7|9|40:41:32(qc=5)
REM Ag 3|2.2|7|7|9|40U:50:41:42(qc=5)
REM 
CELL 1.54180    4.30963    7.46364    8.12392   90.72224   90.00000   90.00000
LATT -1
SFAC Se Ag 
Se     1  0.2500000000000  0.0478704455516 -0.2602823417178 1.0
Se     1 -0.2500000000000 -0.4521295544484 -0.2602823417178 1.0
Se     1 -0.2500000000000  0.1631594691583  0.2449613199546 1.0
Se     1  0.2500000000000 -0.3368405308417  0.2449613199546 1.0
Ag     2 -0.2500000000000 -0.4366124323568  0.0670629465527 1.0
Ag     2  0.2500000000000  0.0633875676432  0.0670629465527 1.0
Ag     2 -0.2500000000000  0.2282260157514 -0.0987661879626 1.0
Ag     2  0.2500000000000 -0.2717739842486 -0.0987661879626 1.0
Ag     2  0.2500000000000  0.3373304254341  0.3991446540731 1.0
Ag     2 -0.2500000000000 -0.1626695745659  0.3991446540731 1.0
Ag     2 -0.2500000000000  0.1739818764614 -0.4309028908998 1.0
Ag     2  0.2500000000000 -0.3260181235386 -0.4309028908998 1.0
END
