TITL 4Ag2Se-200724-224905-a21b46 0.0366 240.656880 -4.61324657E+004 0 0 12 (Pmn21) n - 1
REM
REM Run started: Sat, 25 Jul 2020 00:25:10 +0100 in /scratch/scratch/uccabz1/launch_tmp/launcher_2020-07-24-21-49-03-774937
REM CASTEP 19.11| from code version Version unavailable
REM Functional Perdew Burke Ernzerhof Relativity Koelling-Harmon Dispersion off
REM Cut-off 300.0000 eV Grid scale 1.7500 Gmax 15.5288 1/A FBSC none
REM MP grid 3 3 2 Offset 0.000 0.000 0.000 No. kpts 5 Spacing 0.07
REM Total runtime: 5882.63 s
REM Overall efficiency: 94.4167 %
REM
REM 4Ag2Se.cell (6404a18c6b5dc90313b5c56acf317f23)
REM
REM compiler GCC version 4.9.2
REM options -cpp -iprefix /scratch/UCL/applications/gcc/4.9.2/bin/../lib/gcc/x86_64-unknown-linux-gnu/4.9.2/ -mtune=corei7 -march=x86-64 -g -O2
REM COMMAND_LINE
REM seed 741414546 -641508570 49520923 1120922996 -1347398870 -15212115 -1127585333 -1711617414 -614295717 337698863 -2038641911 1846212525
REM
REM Se 3|2.1|7|7|9|40:41:32(qc=5)
REM Ag 3|2.2|7|7|9|40U:50:41:42(qc=5)
REM 
CELL 1.54180    4.88276    5.86223    8.40763   90.00000   90.00000   90.23697
LATT -1
SFAC Se Ag 
Se     1 -0.0601692799523  0.2498690141245  0.3827260418355 1.0
Se     1  0.4398307200477 -0.2501309858755 -0.3827260418355 1.0
Se     1  0.2201776264151 -0.2511013136456  0.0936370436765 1.0
Se     1 -0.2798223735849  0.2488986863544 -0.0936370436765 1.0
Ag     2 -0.4887380638203  0.2494735631114 -0.4014465533725 1.0
Ag     2  0.0112619361797 -0.2505264368886  0.4014465533725 1.0
Ag     2 -0.4632000905851 -0.0031063048550  0.2787115933675 1.0
Ag     2  0.0367999094149  0.4968936951450 -0.2787115933675 1.0
Ag     2 -0.4711129808369 -0.4998697121251  0.2843104905114 1.0
Ag     2  0.0288870191631  0.0001302878749 -0.2843104905114 1.0
Ag     2  0.1900691887794  0.2471619533898  0.0655899382545 1.0
Ag     2 -0.3099308112206 -0.2528380466102 -0.0655899382545 1.0
END
