TITL 4Ag2Se-200724-032749-53aa42 -0.0757 249.998652 -4.61314029E+004 0 0 12 (R3) n - 1
REM
REM Run started: Fri, 24 Jul 2020 05:24:51 +0100 in /scratch/scratch/uccabz1/launch_tmp/launcher_2020-07-24-02-27-47-744736
REM CASTEP 19.11| from code version Version unavailable
REM Functional Perdew Burke Ernzerhof Relativity Koelling-Harmon Dispersion off
REM Cut-off 300.0000 eV Grid scale 1.7500 Gmax 15.5288 1/A FBSC none
REM MP grid 3 3 3 Offset 0.000 0.000 0.000 No. kpts 6 Spacing 0.07
REM Total runtime: 7150.08 s
REM Overall efficiency: 94.8 %
REM
REM 4Ag2Se.cell (6404a18c6b5dc90313b5c56acf317f23)
REM
REM compiler GCC version 4.9.2
REM options -cpp -iprefix /scratch/UCL/applications/gcc/4.9.2/bin/../lib/gcc/x86_64-unknown-linux-gnu/4.9.2/ -mtune=corei7 -march=x86-64 -g -O2
REM COMMAND_LINE
REM seed 1154352091 857901656 -1949073159 474885753 1640290645 -1718151891 -1650968204 -1495037963 441995727 1489714938 1381543425 -334379675
REM
REM Se 3|2.1|7|7|9|40:41:32(qc=5)
REM Ag 3|2.2|7|7|9|40U:50:41:42(qc=5)
REM 
CELL 1.54180    6.73598    6.73598    6.73598   67.33933   67.33933   67.33933
LATT -1
SFAC Se Ag 
Se     1  0.3945221605572 -0.1732069754937  0.1115189349779 1.0
Se     1 -0.1732069754937  0.1115189349779  0.3945221605572 1.0
Se     1  0.1115189349779  0.3945221605572 -0.1732069754937 1.0
Se     1 -0.3748543422915 -0.3748543422915 -0.3748543422915 1.0
Ag     2 -0.4379708983389  0.2237025224872 -0.1997501859611 1.0
Ag     2  0.2237025224872 -0.1997501859611 -0.4379708983389 1.0
Ag     2 -0.1997501859611 -0.4379708983389  0.2237025224872 1.0
Ag     2  0.5225789737298  0.0642408649986  0.2735229998683 1.0
Ag     2  0.0642408649986  0.2735229998683  0.5225789737298 1.0
Ag     2  0.2735229998683  0.5225789737298  0.0642408649986 1.0
Ag     2 -0.0150428163912 -0.0150428163912 -0.0150428163912 1.0
Ag     2 -0.2075649381426 -0.2075649381426 -0.2075649381426 1.0
END
