TITL 4Ag2Se-200724-070810-a969d5 0.0129 254.786827 -4.61323030E+004 0 0 12 (Cc) n - 1
REM
REM Run started: Fri, 24 Jul 2020 08:20:08 +0100 in /scratch/scratch/uccabz1/launch_tmp/launcher_2020-07-24-06-08-09-066383
REM CASTEP 19.11| from code version Version unavailable
REM Functional Perdew Burke Ernzerhof Relativity Koelling-Harmon Dispersion off
REM Cut-off 300.0000 eV Grid scale 1.7500 Gmax 15.5288 1/A FBSC none
REM MP grid 4 3 2 Offset 0.000 0.000 0.000 No. kpts 12 Spacing 0.07
REM Total runtime: 4990.74 s
REM Overall efficiency: 96.1429 %
REM
REM 4Ag2Se.cell (6404a18c6b5dc90313b5c56acf317f23)
REM
REM compiler GCC version 4.9.2
REM options -cpp -iprefix /scratch/UCL/applications/gcc/4.9.2/bin/../lib/gcc/x86_64-unknown-linux-gnu/4.9.2/ -mtune=corei7 -march=x86-64 -g -O2
REM COMMAND_LINE
REM seed -1249112785 719041212 437206169 1783950966 -1385052401 906626195 -1662808740 -242256425 -495065518 2130455068 -81064043 -573670116
REM
REM Se 3|2.1|7|7|9|40:41:32(qc=5)
REM Ag 3|2.2|7|7|9|40U:50:41:42(qc=5)
REM 
CELL 1.54180    4.70659    6.21074    9.43412   88.75055   86.70093   67.73401
LATT -1
SFAC Se Ag 
Se     1 -0.2623657637820  0.1291233440638 -0.0467827797735 1.0
Se     1  0.3667574802818 -0.1291231440638  0.4532172202265 1.0
Se     1  0.0415903436170 -0.4485926532436 -0.2158208744175 1.0
Se     1  0.0929975903735  0.4485928532436  0.2841791255825 1.0
Ag     2 -0.3914840007380  0.4461725689299  0.1736163747914 1.0
Ag     2 -0.4453115318081 -0.4461723689299 -0.3263836252086 1.0
Ag     2  0.2172308974943  0.2466903337297 -0.4087846114448 1.0
Ag     2 -0.0360788687760 -0.2466901337297  0.0912153885552 1.0
Ag     2  0.3270390760219  0.0140715670673  0.1714809196701 1.0
Ag     2 -0.1588894569108 -0.0140713670673 -0.3285190803299 1.0
Ag     2 -0.2026107658461  0.0301478659188  0.3682505711743 1.0
Ag     2  0.3275370000726 -0.0301476659188 -0.1317494288257 1.0
END
