TITL 4Ag2Se-200724-075622-4d68c9 -0.0966 266.236345 -4.61327852E+004 0 0 12 (R3) n - 1
REM
REM Run started: Fri, 24 Jul 2020 08:31:15 +0100 in /scratch/scratch/uccabz1/launch_tmp/launcher_2020-07-24-06-56-20-952745
REM CASTEP 19.11| from code version Version unavailable
REM Functional Perdew Burke Ernzerhof Relativity Koelling-Harmon Dispersion off
REM Cut-off 300.0000 eV Grid scale 1.7500 Gmax 15.5288 1/A FBSC none
REM MP grid 3 3 3 Offset 0.000 0.000 0.000 No. kpts 6 Spacing 0.07
REM Total runtime: 2234.51 s
REM Overall efficiency: 93 %
REM
REM 4Ag2Se.cell (6404a18c6b5dc90313b5c56acf317f23)
REM
REM compiler GCC version 4.9.2
REM options -cpp -iprefix /scratch/UCL/applications/gcc/4.9.2/bin/../lib/gcc/x86_64-unknown-linux-gnu/4.9.2/ -mtune=corei7 -march=x86-64 -g -O2
REM COMMAND_LINE
REM seed 1970534828 370165248 715387612 -339254644 -821967603 -72467254 -1808977601 -1024532495 -1291557124 -1591599515 1318130989 208335908
REM
REM Se 3|2.1|7|7|9|40:41:32(qc=5)
REM Ag 3|2.2|7|7|9|40U:50:41:42(qc=5)
REM 
CELL 1.54180    6.43322    6.43322    6.43322   89.69589   89.69589   89.69589
LATT -1
SFAC Se Ag 
Se     1 -0.2371769908600  0.2027878288695 -0.3551091844127 1.0
Se     1 -0.3551091844127 -0.2371769908600  0.2027878288695 1.0
Se     1  0.2027878288695 -0.3551091844127 -0.2371769908600 1.0
Se     1  0.2041801992196  0.2041801992196  0.2041801992196 1.0
Ag     2 -0.4717593656937  0.1082539425906 -0.0127276404496 1.0
Ag     2 -0.0127276404496 -0.4717593656937  0.1082539425906 1.0
Ag     2  0.1082539425906 -0.0127276404496 -0.4717593656937 1.0
Ag     2 -0.1221029768687 -0.3939331362015 -0.4812440459474 1.0
Ag     2 -0.4812440459474 -0.1221029768687 -0.3939331362015 1.0
Ag     2 -0.3939331362015 -0.4812440459474 -0.1221029768687 1.0
Ag     2  0.4445567042153  0.4445567042153  0.4445567042153 1.0
Ag     2 -0.0361146344613 -0.0361146344613 -0.0361146344613 1.0
END
