TITL 4Ag2Se-200724-085448-0ca587 -0.0215 258.404058 -4.61324462E+004 0 0 12 (R3) n - 1
REM
REM Run started: Fri, 24 Jul 2020 10:05:22 +0100 in /scratch/scratch/uccabz1/launch_tmp/launcher_2020-07-24-07-54-45-927234
REM CASTEP 19.11| from code version Version unavailable
REM Functional Perdew Burke Ernzerhof Relativity Koelling-Harmon Dispersion off
REM Cut-off 300.0000 eV Grid scale 1.7500 Gmax 15.5288 1/A FBSC none
REM MP grid 3 3 3 Offset 0.000 0.000 0.000 No. kpts 6 Spacing 0.07
REM Total runtime: 3974.08 s
REM Overall efficiency: 91.2 %
REM
REM 4Ag2Se.cell (6404a18c6b5dc90313b5c56acf317f23)
REM
REM compiler GCC version 4.9.2
REM options -cpp -iprefix /scratch/UCL/applications/gcc/4.9.2/bin/../lib/gcc/x86_64-unknown-linux-gnu/4.9.2/ -mtune=corei7 -march=x86-64 -g -O2
REM COMMAND_LINE
REM seed -176267716 115992495 -1347715262 63188738 2141398415 257902326 337111983 858489067 -904042557 -905763889 -258647972 -861989198
REM
REM Se 3|2.1|7|7|9|40:41:32(qc=5)
REM Ag 3|2.2|7|7|9|40U:50:41:42(qc=5)
REM 
CELL 1.54180    6.36957    6.36957    6.36957   89.59907   89.59907   89.59907
LATT -1
SFAC Se Ag 
Se     1 -0.3266843462051 -0.3899586972908  0.1111868074660 1.0
Se     1  0.1111868074660 -0.3266843462051 -0.3899586972908 1.0
Se     1 -0.3899586972908  0.1111868074660 -0.3266843462051 1.0
Se     1  0.1736650018365  0.1736650018365  0.1736650018365 1.0
Ag     2  0.1085714859345 -0.3991179150808  0.1833124823553 1.0
Ag     2  0.1833124823553  0.1085714859345 -0.3991179150808 1.0
Ag     2 -0.3991179150808  0.1833124823553  0.1085714859345 1.0
Ag     2 -0.1593353483518  0.3547333010887  0.4470875043228 1.0
Ag     2  0.4470875043228 -0.1593353483518  0.3547333010887 1.0
Ag     2  0.3547333010887  0.4470875043228 -0.1593353483518 1.0
Ag     2 -0.3071687292024 -0.3071687292024 -0.3071687292024 1.0
Ag     2 -0.0538779468728 -0.0538779468728 -0.0538779468728 1.0
END
