TITL 4Ag2Se_TETRA-200724-155213-2b5661 -0.0024 266.971923 -4.61322228E+004 0 0 12 (P43) n - 1
REM
REM Run started: Fri, 24 Jul 2020 16:19:47 +0100 in /scratch/scratch/uccabz1/launch_tmp/launcher_2020-07-24-14-52-12-018094
REM CASTEP 19.11| from code version Version unavailable
REM Functional Perdew Burke Ernzerhof Relativity Koelling-Harmon Dispersion off
REM Cut-off 300.0000 eV Grid scale 1.7500 Gmax 15.5288 1/A FBSC none
REM MP grid 2 3 3 Offset 0.000 0.000 0.000 No. kpts 3 Spacing 0.07
REM Total runtime: 1818.42 s
REM Overall efficiency: 76.75 %
REM
REM 4Ag2Se_TETRA.cell (4020362940262d3df87d4014b41eb05e)
REM
REM compiler GCC version 4.9.2
REM options -cpp -iprefix /scratch/UCL/applications/gcc/4.9.2/bin/../lib/gcc/x86_64-unknown-linux-gnu/4.9.2/ -mtune=corei7 -march=x86-64 -g -O2
REM COMMAND_LINE
REM seed 1979109434 1071284740 2059916135 -306169105 1316729708 -1493321931 43950475 1129602745 362450953 -1022260850 144561223 -970358352
REM
REM Se 3|2.1|7|7|9|40:41:32(qc=5)
REM Ag 3|2.2|7|7|9|40U:50:41:42(qc=5)
REM 
CELL 1.54180    7.83217    5.83837    5.83837   90.00000   90.00000   90.00000
LATT -1
SFAC Se Ag 
Se     1  0.0128855461314 -0.4207959767217  0.0736366615133 1.0
Se     1 -0.4871144538686  0.4207959767217 -0.0736366615133 1.0
Se     1  0.2628855461314  0.0736366615133  0.4207959767217 1.0
Se     1 -0.2371144538686 -0.0736366615133 -0.4207959767217 1.0
Ag     2  0.0694221719908 -0.2676299064678 -0.4101802794135 1.0
Ag     2 -0.4305778280092  0.2676299064678  0.4101802794135 1.0
Ag     2  0.3194221719908 -0.4101802794135  0.2676299064678 1.0
Ag     2 -0.1805778280092  0.4101802794135 -0.2676299064678 1.0
Ag     2 -0.3144165181222 -0.3094888586101  0.2095758740091 1.0
Ag     2  0.1855834818778  0.3094888586101 -0.2095758740091 1.0
Ag     2 -0.0644165181222  0.2095758740091  0.3094888586101 1.0
Ag     2  0.4355834818778 -0.2095758740091 -0.3094888586101 1.0
END
