TITL 4Ag2Se_TETRA-200724-134646-15d5c1 -0.0033 262.977213 -4.61315853E+004 0 0 12 (R3) n - 1
REM
REM Run started: Fri, 24 Jul 2020 14:35:32 +0100 in /scratch/scratch/uccabz1/launch_tmp/launcher_2020-07-24-12-46-45-340529
REM CASTEP 19.11| from code version Version unavailable
REM Functional Perdew Burke Ernzerhof Relativity Koelling-Harmon Dispersion off
REM Cut-off 300.0000 eV Grid scale 1.7500 Gmax 15.5288 1/A FBSC none
REM MP grid 3 3 3 Offset 0.000 0.000 0.000 No. kpts 6 Spacing 0.07
REM Total runtime: 3236.94 s
REM Overall efficiency: 93.5 %
REM
REM 4Ag2Se_TETRA.cell (4020362940262d3df87d4014b41eb05e)
REM
REM compiler GCC version 4.9.2
REM options -cpp -iprefix /scratch/UCL/applications/gcc/4.9.2/bin/../lib/gcc/x86_64-unknown-linux-gnu/4.9.2/ -mtune=corei7 -march=x86-64 -g -O2
REM COMMAND_LINE
REM seed 296567268 1947433575 1508571632 -22438496 -1358799755 741959994 -1547921726 -936758204 -191346061 916711131 1646725008 -1394695739
REM
REM Se 3|2.1|7|7|9|40:41:32(qc=5)
REM Ag 3|2.2|7|7|9|40U:50:41:42(qc=5)
REM 
CELL 1.54180    6.40884    6.40884    6.40884   91.44303   91.44303   91.44303
LATT -1
SFAC Se Ag 
Se     1 -0.3243957085963  0.2481535063252  0.2440123754621 1.0
Se     1  0.2440123754621 -0.3243957085963  0.2481535063252 1.0
Se     1  0.2481535063252  0.2440123754621 -0.3243957085963 1.0
Se     1 -0.1430228517224 -0.1430228517224 -0.1430228517224 1.0
Ag     2  0.4743342846105 -0.0721162546498 -0.2791238345370 1.0
Ag     2 -0.2791238345370  0.4743342846105 -0.0721162546498 1.0
Ag     2 -0.0721162546498 -0.2791238345370  0.4743342846105 1.0
Ag     2  0.1748012624775 -0.4031887539953 -0.1447072896070 1.0
Ag     2 -0.1447072896070  0.1748012624775 -0.4031887539953 1.0
Ag     2 -0.4031887539953 -0.1447072896070  0.1748012624775 1.0
Ag     2 -0.4781691826684 -0.4781691826684 -0.4781691826684 1.0
Ag     2  0.2288910469008  0.2288910469008  0.2288910469008 1.0
END
