TITL 4Ag2Se_TETRA-200724-140258-a013ae -0.0001 258.758294 -4.61323274E+004 0 0 12 (Pna21) n - 1
REM
REM Run started: Fri, 24 Jul 2020 15:09:46 +0100 in /scratch/scratch/uccabz1/launch_tmp/launcher_2020-07-24-13-02-56-578754
REM CASTEP 19.11| from code version Version unavailable
REM Functional Perdew Burke Ernzerhof Relativity Koelling-Harmon Dispersion off
REM Cut-off 300.0000 eV Grid scale 1.7500 Gmax 15.5288 1/A FBSC none
REM MP grid 3 3 3 Offset 0.000 0.000 0.000 No. kpts 8 Spacing 0.07
REM Total runtime: 4462.74 s
REM Overall efficiency: 94.75 %
REM
REM 4Ag2Se_TETRA.cell (4020362940262d3df87d4014b41eb05e)
REM
REM compiler GCC version 4.9.2
REM options -cpp -iprefix /scratch/UCL/applications/gcc/4.9.2/bin/../lib/gcc/x86_64-unknown-linux-gnu/4.9.2/ -mtune=corei7 -march=x86-64 -g -O2
REM COMMAND_LINE
REM seed 1335682969 -960916804 1117989821 -369171842 -1066505543 -2134055292 -2112759324 -779207611 270920472 480691592 -1190282867 -613971477
REM
REM Se 3|2.1|7|7|9|40:41:32(qc=5)
REM Ag 3|2.2|7|7|9|40U:50:41:42(qc=5)
REM 
CELL 1.54180    6.36166    6.47591    6.28092   90.00000   90.00000   90.00000
LATT -1
SFAC Se Ag 
Se     1 -0.2023679627151  0.4928191923074  0.4319749323807 1.0
Se     1  0.2023679627151 -0.4928191923074 -0.0680250676193 1.0
Se     1  0.2976320372849  0.0071808076926  0.4319749323807 1.0
Se     1 -0.2976320372849 -0.0071808076926 -0.0680250676193 1.0
Ag     2 -0.0167014840096 -0.2024701197480 -0.2892622006081 1.0
Ag     2  0.0167014840096  0.2024701197480  0.2107377993919 1.0
Ag     2  0.4832985159904 -0.2975298802520 -0.2892622006081 1.0
Ag     2 -0.4832985159904  0.2975298802520  0.2107377993919 1.0
Ag     2 -0.2082131807031  0.3836159319328 -0.1576683317726 1.0
Ag     2  0.2082131807031 -0.3836159319328  0.3423316682274 1.0
Ag     2  0.2917868192969  0.1163840680672 -0.1576683317726 1.0
Ag     2 -0.2917868192969 -0.1163840680672  0.3423316682274 1.0
END
