TITL 4Ag2Se-200724-092820-5cef30 -0.0062 241.114234 -4.61312161E+004 0 0 12 (Pmna) n - 1
REM
REM Run started: Fri, 24 Jul 2020 09:53:28 +0100 in /scratch/scratch/uccabz1/launch_tmp/launcher_2020-07-24-08-28-18-772826
REM CASTEP 19.11| from code version Version unavailable
REM Functional Perdew Burke Ernzerhof Relativity Koelling-Harmon Dispersion off
REM Cut-off 300.0000 eV Grid scale 1.7500 Gmax 15.5288 1/A FBSC none
REM MP grid 3 3 2 Offset 0.000 0.000 0.000 No. kpts 4 Spacing 0.07
REM Total runtime: 1780.43 s
REM Overall efficiency: 93.6667 %
REM
REM 4Ag2Se.cell (6404a18c6b5dc90313b5c56acf317f23)
REM
REM compiler GCC version 4.9.2
REM options -cpp -iprefix /scratch/UCL/applications/gcc/4.9.2/bin/../lib/gcc/x86_64-unknown-linux-gnu/4.9.2/ -mtune=corei7 -march=x86-64 -g -O2
REM COMMAND_LINE
REM seed -1040334561 -1945984638 -536430196 -671350879 959264889 -1995203531 2140821796 2107687963 -1714003717 -1934584658 -973062729 1636665
REM
REM Se 3|2.1|7|7|9|40:41:32(qc=5)
REM Ag 3|2.2|7|7|9|40U:50:41:42(qc=5)
REM 
CELL 1.54180    5.65807    5.63301    7.56509   90.00000   90.00000   90.00000
LATT -1
SFAC Se Ag 
Se     1  0.4887489263192 -0.3284593000000  0.2219142234523 1.0
Se     1 -0.4887489263192 -0.3284593000000 -0.2219142234523 1.0
Se     1  0.0112510736808  0.1715407000000  0.2219142234523 1.0
Se     1 -0.0112510736808  0.1715407000000 -0.2219142234523 1.0
Ag     2 -0.2500000000000 -0.0784593000000  0.4965621121177 1.0
Ag     2  0.2500000000000 -0.0784593000000 -0.4965621121177 1.0
Ag     2 -0.2500000000000  0.4215407000000  0.4965621121177 1.0
Ag     2  0.2500000000000  0.4215407000000 -0.4965621121177 1.0
Ag     2 -0.4875190306522  0.1715407000000  0.1941245255241 1.0
Ag     2  0.4875190306522  0.1715407000000 -0.1941245255241 1.0
Ag     2 -0.0124809693478 -0.3284593000000  0.1941245255241 1.0
Ag     2  0.0124809693478 -0.3284593000000 -0.1941245255241 1.0
END
