TITL 6Ag2Se-200724-232403-5a2813 0.0338 357.704085 -6.91984569E+004 0 0 18 (P2/c) n - 1
REM
REM Run started: Sat, 25 Jul 2020 02:43:47 +0100 in /scratch/scratch/uccabz1/launch_tmp/launcher_2020-07-24-22-24-01-683797
REM CASTEP 19.11| from code version Version unavailable
REM Functional Perdew Burke Ernzerhof Relativity Koelling-Harmon Dispersion off
REM Cut-off 300.0000 eV Grid scale 1.7500 Gmax 15.5288 1/A FBSC none
REM MP grid 3 3 2 Offset 0.000 0.000 0.000 No. kpts 6 Spacing 0.07
REM Total runtime: 12291.5 s
REM Overall efficiency: 97.2222 %
REM
REM 6Ag2Se.cell (be4689b4cac7b37e3e738b5494392318)
REM
REM compiler GCC version 4.9.2
REM options -cpp -iprefix /scratch/UCL/applications/gcc/4.9.2/bin/../lib/gcc/x86_64-unknown-linux-gnu/4.9.2/ -mtune=corei7 -march=x86-64 -g -O2
REM COMMAND_LINE
REM seed -36335808 597705720 -2115208022 2136382724 194683495 -1470804480 -233469898 -1867483293 246573205 3872180 -1273102442 50527760
REM
REM Se 3|2.1|7|7|9|40:41:32(qc=5)
REM Ag 3|2.2|7|7|9|40U:50:41:42(qc=5)
REM 
CELL 1.54180    5.78701    5.76200   10.74865   90.00000   93.59991   90.00000
LATT -1
SFAC Se Ag 
Se     1 -0.4157934582797  0.2767992149446  0.1390063657393 1.0
Se     1 -0.0842065417203  0.2767992149446 -0.1390063657393 1.0
Se     1  0.4157934582797 -0.2767992149446 -0.1390063657393 1.0
Se     1  0.0842065417203 -0.2767992149446  0.1390063657393 1.0
Se     1  0.2500000000000 -0.2203303824168  0.5000000000000 1.0
Se     1 -0.2500000000000  0.2203303824168  0.5000000000000 1.0
Ag     2 -0.5098270072414  0.4456644660536 -0.3392524917865 1.0
Ag     2  0.0098270072414  0.4456644660536  0.3392524917865 1.0
Ag     2  0.5098270072414 -0.4456644660536  0.3392524917865 1.0
Ag     2 -0.0098270072414 -0.4456644660536 -0.3392524917865 1.0
Ag     2  0.1291879196499  0.0588830409171 -0.3168919596105 1.0
Ag     2  0.3708120803501  0.0588830409171  0.3168919596105 1.0
Ag     2 -0.1291879196499 -0.0588830409171  0.3168919596105 1.0
Ag     2 -0.3708120803501 -0.0588830409171 -0.3168919596105 1.0
Ag     2  0.4196114785789  0.2195315103760 -0.1021852903083 1.0
Ag     2  0.0803885214211  0.2195315103760  0.1021852903083 1.0
Ag     2 -0.4196114785789 -0.2195315103760  0.1021852903083 1.0
Ag     2 -0.0803885214211 -0.2195315103760 -0.1021852903083 1.0
END
