TITL 6Ag2Se-200725-061623-5dfc7c -0.0771 357.802542 -6.91979546E+004 0 0 18 (P21/c) n - 1
REM
REM Run started: Sat, 25 Jul 2020 08:01:20 +0100 in /scratch/scratch/uccabz1/launch_tmp/launcher_2020-07-25-05-16-21-608478
REM CASTEP 19.11| from code version Version unavailable
REM Functional Perdew Burke Ernzerhof Relativity Koelling-Harmon Dispersion off
REM Cut-off 300.0000 eV Grid scale 1.7500 Gmax 15.5288 1/A FBSC none
REM MP grid 3 3 2 Offset 0.000 0.000 0.000 No. kpts 6 Spacing 0.07
REM Total runtime: 6613.2 s
REM Overall efficiency: 96.8571 %
REM
REM 6Ag2Se.cell (be4689b4cac7b37e3e738b5494392318)
REM
REM compiler GCC version 4.9.2
REM options -cpp -iprefix /scratch/UCL/applications/gcc/4.9.2/bin/../lib/gcc/x86_64-unknown-linux-gnu/4.9.2/ -mtune=corei7 -march=x86-64 -g -O2
REM COMMAND_LINE
REM seed 876158614 896132611 1119147806 810922125 -1734887408 -122680679 911021326 -1542102098 290413044 1908241129 269679787 365058086
REM
REM Se 3|2.1|7|7|9|40:41:32(qc=5)
REM Ag 3|2.2|7|7|9|40U:50:41:42(qc=5)
REM 
CELL 1.54180    4.99358    7.06327   10.23805   97.75656   90.00000   90.00000
LATT -1
SFAC Se Ag 
Se     1  0.0975947574281 -0.0966952012480 -0.1791385534536 1.0
Se     1 -0.4024052425719 -0.4033047987520  0.1791385534536 1.0
Se     1 -0.0975947574281  0.0966952012480  0.1791385534536 1.0
Se     1  0.4024052425719  0.4033047987520 -0.1791385534536 1.0
Se     1  0.0000000000000  0.5000000000000  0.5000000000000 1.0
Se     1 -0.5000000000000  0.0000000000000  0.5000000000000 1.0
Ag     2  0.4527091565254 -0.3313638774156 -0.3902158325661 1.0
Ag     2 -0.0472908434746 -0.1686361225844  0.3902158325661 1.0
Ag     2 -0.4527091565254  0.3313638774156  0.3902158325661 1.0
Ag     2  0.0472908434746  0.1686361225844 -0.3902158325661 1.0
Ag     2  0.4564970629823  0.2105772344910  0.0482440643151 1.0
Ag     2 -0.0435029370177  0.2894227655091 -0.0482440643151 1.0
Ag     2 -0.4564970629823 -0.2105772344909 -0.0482440643151 1.0
Ag     2  0.0435029370177 -0.2894227655090  0.0482440643151 1.0
Ag     2  0.3825805819394 -0.0494195656275  0.2354411041671 1.0
Ag     2 -0.1174194180606 -0.4505804343725 -0.2354411041671 1.0
Ag     2 -0.3825805819394  0.0494195656275 -0.2354411041671 1.0
Ag     2  0.1174194180606  0.4505804343725  0.2354411041671 1.0
END
