TITL 6Ag2Se-200724-190911-7385eb -0.0607 377.123808 -6.91985160E+004 0 0 18 (P21/c) n - 1
REM
REM Run started: Fri, 24 Jul 2020 21:28:06 +0100 in /scratch/scratch/uccabz1/launch_tmp/launcher_2020-07-24-18-09-08-597038
REM CASTEP 19.11| from code version Version unavailable
REM Functional Perdew Burke Ernzerhof Relativity Koelling-Harmon Dispersion off
REM Cut-off 300.0000 eV Grid scale 1.7500 Gmax 15.5288 1/A FBSC none
REM MP grid 4 2 2 Offset 0.000 0.000 0.000 No. kpts 4 Spacing 0.07
REM Total runtime: 8902.15 s
REM Overall efficiency: 96.5 %
REM
REM 6Ag2Se.cell (be4689b4cac7b37e3e738b5494392318)
REM
REM compiler GCC version 4.9.2
REM options -cpp -iprefix /scratch/UCL/applications/gcc/4.9.2/bin/../lib/gcc/x86_64-unknown-linux-gnu/4.9.2/ -mtune=corei7 -march=x86-64 -g -O2
REM COMMAND_LINE
REM seed 270975116 -1227945994 1109846655 -1313955046 478091906 478528545 692424421 -832781225 -1559159288 932145173 1328425420 -258278797
REM
REM Se 3|2.1|7|7|9|40:41:32(qc=5)
REM Ag 3|2.2|7|7|9|40U:50:41:42(qc=5)
REM 
CELL 1.54180    4.20933    7.23819   12.41464   90.00000   94.41972   90.00000
LATT -1
SFAC Se Ag 
Se     1 -0.3800034495092  0.4314292724289 -0.3350895932388 1.0
Se     1  0.3800034495092 -0.0685707275711 -0.1649104067612 1.0
Se     1  0.3800034495092 -0.4314292724289  0.3350895932388 1.0
Se     1 -0.3800034495092  0.0685707275711  0.1649104067612 1.0
Se     1  0.0000000000000 -0.5000000000000  0.0000000000000 1.0
Se     1  0.0000000000000 -0.0000000000000  0.5000000000000 1.0
Ag     2 -0.4466267705267  0.4615783345592  0.1390512258390 1.0
Ag     2  0.4466267705267 -0.0384216654408  0.3609487741610 1.0
Ag     2  0.4466267705267 -0.4615783345592 -0.1390512258390 1.0
Ag     2 -0.4466267705267  0.0384216654408 -0.3609487741610 1.0
Ag     2  0.0913076297773  0.2350593490370 -0.2369338779699 1.0
Ag     2 -0.0913076297773 -0.2649406509630 -0.2630661220301 1.0
Ag     2 -0.0913076297773 -0.2350593490370  0.2369338779699 1.0
Ag     2  0.0913076297773  0.2649406509630  0.2630661220301 1.0
Ag     2  0.2996367694004 -0.1836799001045  0.0501493704160 1.0
Ag     2 -0.2996367694004  0.3163200998955  0.4498506295840 1.0
Ag     2 -0.2996367694004  0.1836799001045 -0.0501493704160 1.0
Ag     2  0.2996367694004 -0.3163200998955 -0.4498506295840 1.0
END
