TITL 6Ag2Se-200724-105722-04780f -0.0429 366.410108 -6.91983282E+004 0 0 18 (Ccc2) n - 1
REM
REM Run started: Fri, 24 Jul 2020 13:06:27 +0100 in /scratch/scratch/uccabz1/launch_tmp/launcher_2020-07-24-09-57-19-490112
REM CASTEP 19.11| from code version Version unavailable
REM Functional Perdew Burke Ernzerhof Relativity Koelling-Harmon Dispersion off
REM Cut-off 300.0000 eV Grid scale 1.7500 Gmax 15.5288 1/A FBSC none
REM MP grid 3 3 2 Offset 0.000 0.000 0.000 No. kpts 6 Spacing 0.07
REM Total runtime: 8010.79 s
REM Overall efficiency: 97 %
REM
REM 6Ag2Se.cell (be4689b4cac7b37e3e738b5494392318)
REM
REM compiler GCC version 4.9.2
REM options -cpp -iprefix /scratch/UCL/applications/gcc/4.9.2/bin/../lib/gcc/x86_64-unknown-linux-gnu/4.9.2/ -mtune=corei7 -march=x86-64 -g -O2
REM COMMAND_LINE
REM seed -166679877 -1578999009 652548329 790694370 -20146330 560607847 -1691304805 -792235223 -1193552730 2143581873 1657007206 -1624792551
REM
REM Se 3|2.1|7|7|9|40:41:32(qc=5)
REM Ag 3|2.2|7|7|9|40U:50:41:42(qc=5)
REM 
CELL 1.54180    5.81648    7.75674    8.99989  115.52695   90.00000   90.00000
LATT -1
SFAC Se Ag 
Se     1  0.3574055601593  0.3560766647010  0.1555692498770 1.0
Se     1  0.3574055601593 -0.3560764647010 -0.1555690498770 1.0
Se     1 -0.1425944398407 -0.2005073148241  0.1555692498770 1.0
Se     1 -0.1425944398407  0.2005075148241 -0.1555690498770 1.0
Se     1  0.3873311172285  0.0000001000000  0.5000001000000 1.0
Se     1 -0.1126688827715  0.5000001000000  0.5000001000000 1.0
Ag     2  0.3103108274165  0.3477966215408  0.5432126172228 1.0
Ag     2  0.3103108274165 -0.3477964215408 -0.5432124172228 1.0
Ag     2 -0.1896891725835  0.1954160956821  0.5432126172228 1.0
Ag     2 -0.1896891725835 -0.1954158956821 -0.5432124172228 1.0
Ag     2  0.3533045324990 -0.2510129408915  0.1717201036341 1.0
Ag     2  0.3533045324990  0.2510131408915 -0.1717199036341 1.0
Ag     2 -0.1466954675010  0.4227331445256  0.1717201036341 1.0
Ag     2 -0.1466954675010 -0.4227329445256 -0.1717199036341 1.0
Ag     2  0.1091963713109  0.1005754134394  0.2029962468102 1.0
Ag     2  0.1091963713109 -0.1005752134394 -0.2029960468102 1.0
Ag     2 -0.3908036286891  0.1024209333708  0.2029962468102 1.0
Ag     2 -0.3908036286891 -0.1024207333708 -0.2029960468102 1.0
END
