TITL 6Ag2Se-200724-190405-aa395f 0.2846 373.846483 -6.91984917E+004 0 0 18 (P21) n - 1
REM
REM Run started: Fri, 24 Jul 2020 23:46:43 +0100 in /scratch/scratch/uccabz1/launch_tmp/launcher_2020-07-24-18-04-01-282558
REM CASTEP 19.11| from code version Version unavailable
REM Functional Perdew Burke Ernzerhof Relativity Koelling-Harmon Dispersion off
REM Cut-off 300.0000 eV Grid scale 1.7500 Gmax 15.5288 1/A FBSC none
REM MP grid 3 2 2 Offset 0.000 0.000 0.000 No. kpts 3 Spacing 0.07
REM Total runtime: 18189.8 s
REM Overall efficiency: 93.6667 %
REM
REM 6Ag2Se.cell (be4689b4cac7b37e3e738b5494392318)
REM
REM compiler GCC version 4.9.2
REM options -cpp -iprefix /scratch/UCL/applications/gcc/4.9.2/bin/../lib/gcc/x86_64-unknown-linux-gnu/4.9.2/ -mtune=corei7 -march=x86-64 -g -O2
REM COMMAND_LINE
REM seed -43511464 -1600251890 1080252268 2054648626 554283953 774373054 1559328992 -2010788247 -1324970359 2010964078 -1502460148 -637675600
REM
REM Se 3|2.1|7|7|9|40:41:32(qc=5)
REM Ag 3|2.2|7|7|9|40U:50:41:42(qc=5)
REM 
CELL 1.54180    4.92538    9.51482    8.11566   90.00000   90.00000  100.59695
LATT -1
SFAC Se Ag 
Se     1 -0.2588536282066 -0.5089959211517 -0.3813021096126 1.0
Se     1  0.2588536282066  0.5089959211517  0.1186978903874 1.0
Se     1  0.3871222464716 -0.1802164644477 -0.3407657295812 1.0
Se     1 -0.3871222464716  0.1802164644477  0.1592342704188 1.0
Se     1 -0.0190482015333 -0.1757152247022  0.2977372242178 1.0
Se     1  0.0190482015333  0.1757152247022 -0.2022627757822 1.0
Ag     2  0.3551521824480 -0.2310843206933 -0.0183439118814 1.0
Ag     2 -0.3551521824480  0.2310843206933  0.4816560881186 1.0
Ag     2 -0.2050149911270 -0.3907061322483  0.0761673628544 1.0
Ag     2  0.2050149911270  0.3907061322483 -0.4238326371456 1.0
Ag     2  0.1341657065266  0.2406948798812  0.2567884030176 1.0
Ag     2 -0.1341657065266 -0.2406948798812 -0.2432115969824 1.0
Ag     2  0.5256251075317 -0.0577736685642  0.3370310735650 1.0
Ag     2 -0.5256251075317  0.0577736685642 -0.1629689264350 1.0
Ag     2  0.0546140009928  0.0306037263680 -0.4715374230301 1.0
Ag     2 -0.0546140009928 -0.0306037263680  0.0284625769699 1.0
Ag     2 -0.4859669244500  0.3697573260498 -0.1067874895495 1.0
Ag     2  0.4859669244500 -0.3697573260498  0.3932125104505 1.0
END
