TITL 6Ag2Se-200725-002813-8e28eb 0.0456 361.645180 -6.91980609E+004 0 0 18 (P-1) n - 1
REM
REM Run started: Sat, 25 Jul 2020 07:58:52 +0100 in /scratch/scratch/uccabz1/launch_tmp/launcher_2020-07-24-23-28-11-389057
REM CASTEP 19.11| from code version Version unavailable
REM Functional Perdew Burke Ernzerhof Relativity Koelling-Harmon Dispersion off
REM Cut-off 300.0000 eV Grid scale 1.7500 Gmax 15.5288 1/A FBSC none
REM MP grid 3 3 2 Offset 0.000 0.000 0.000 No. kpts 9 Spacing 0.07
REM Total runtime: 27392.3 s
REM Overall efficiency: 77.0667 %
REM
REM 6Ag2Se.cell (be4689b4cac7b37e3e738b5494392318)
REM
REM compiler GCC version 4.9.2
REM options -cpp -iprefix /scratch/UCL/applications/gcc/4.9.2/bin/../lib/gcc/x86_64-unknown-linux-gnu/4.9.2/ -mtune=corei7 -march=x86-64 -g -O2
REM COMMAND_LINE
REM seed -1109781637 -1540566363 -1663502027 1952908816 478432375 -1765022742 416260405 -1086464984 -1118762590 583928385 -1615393184 1967521739
REM
REM Se 3|2.1|7|7|9|40:41:32(qc=5)
REM Ag 3|2.2|7|7|9|40U:50:41:42(qc=5)
REM 
CELL 1.54180    7.50963    7.49856    8.45980   96.52058   99.78168  126.79953
LATT -1
SFAC Se Ag 
Se     1  0.6032808018053  0.3361764493356  0.1064067213888 1.0
Se     1 -0.6032808018053 -0.3361764493356 -0.1064067213888 1.0
Se     1  0.6725608682101 -0.1095932404095  0.4218651527277 1.0
Se     1 -0.6725608682101  0.1095932404095 -0.4218651527277 1.0
Se     1  0.1913367452402  0.4481919928363  0.3137882172671 1.0
Se     1 -0.1913367452402 -0.4481919928363 -0.3137882172671 1.0
Ag     2  0.2706769740671  0.1303935195812  0.2646973833850 1.0
Ag     2 -0.2706769740671 -0.1303935195812 -0.2646973833850 1.0
Ag     2  0.1570394673754  0.2641039002780 -0.0088391714556 1.0
Ag     2 -0.1570394673754 -0.2641039002780  0.0088391714556 1.0
Ag     2  0.2285442160012 -0.0498980947126 -0.1291798246776 1.0
Ag     2 -0.2285442160012  0.0498980947126  0.1291798246776 1.0
Ag     2  0.2128624156089 -0.2745058984179  0.1346222177839 1.0
Ag     2 -0.2128624156089  0.2745058984179 -0.1346222177839 1.0
Ag     2  0.7543887612380  0.2878577016474  0.4078855951497 1.0
Ag     2 -0.7543887612380 -0.2878577016474 -0.4078855951497 1.0
Ag     2  0.0901873670292 -0.7382131334950 -0.3554837730241 1.0
Ag     2 -0.0901873670292  0.7382131334950  0.3554837730241 1.0
END
