TITL 6Ag2Se-200725-082411-812c1d 0.0540 371.671034 -6.91988604E+004 0 0 18 (P31) n - 1
REM
REM Run started: Sat, 25 Jul 2020 10:37:42 +0100 in /scratch/scratch/uccabz1/launch_tmp/launcher_2020-07-25-07-24-09-165805
REM CASTEP 19.11| from code version Version unavailable
REM Functional Perdew Burke Ernzerhof Relativity Koelling-Harmon Dispersion off
REM Cut-off 300.0000 eV Grid scale 1.7500 Gmax 15.5288 1/A FBSC none
REM MP grid 3 3 2 Offset 0.000 0.000 0.000 No. kpts 5 Spacing 0.07
REM Total runtime: 8129.36 s
REM Overall efficiency: 96.1429 %
REM
REM 6Ag2Se.cell (be4689b4cac7b37e3e738b5494392318)
REM
REM compiler GCC version 4.9.2
REM options -cpp -iprefix /scratch/UCL/applications/gcc/4.9.2/bin/../lib/gcc/x86_64-unknown-linux-gnu/4.9.2/ -mtune=corei7 -march=x86-64 -g -O2
REM COMMAND_LINE
REM seed 677994860 -352645887 -1537412728 -876650160 1048477198 482191022 -78189352 -826388650 627360554 350358819 4968817 -1660383646
REM
REM Se 3|2.1|7|7|9|40:41:32(qc=5)
REM Ag 3|2.2|7|7|9|40U:50:41:42(qc=5)
REM 
CELL 1.54180    7.11087    7.11087    8.48756   90.00000   90.00000  120.00000
LATT -1
SFAC Se Ag 
Se     1  0.0167250128826 -0.3374961297303  0.1508493516849 1.0
Se     1 -0.3542210426128 -0.0167250128826 -0.1824839816484 1.0
Se     1  0.3374961297303  0.3542210426128  0.4841826850182 1.0
Se     1 -0.3097573141975  0.0271396548155  0.3666769725027 1.0
Se     1  0.3368970690130  0.3097573141975  0.0333436391694 1.0
Se     1 -0.0271396548155 -0.3368970690130 -0.2999896941639 1.0
Ag     2 -0.0478654514394  0.2975368908679 -0.3940862926545 1.0
Ag     2  0.3454024423073  0.0478654514394  0.2725803740121 1.0
Ag     2 -0.2975368908679 -0.3454024423073 -0.0607529593212 1.0
Ag     2 -0.4663681819555  0.2764613836476 -0.2836003250247 1.0
Ag     2 -0.2571703343970  0.4663681819555  0.3830663416419 1.0
Ag     2 -0.2764613836476  0.2571703343970  0.0497330083086 1.0
Ag     2  0.4107663703878 -0.3554659303718  0.2261391977604 1.0
Ag     2  0.2337677992403 -0.4107663703878 -0.1071941355729 1.0
Ag     2  0.3554659303718 -0.2337677992403 -0.4405274689062 1.0
Ag     2 -0.0089583913073 -0.0744922236406  0.4774029290645 1.0
Ag     2 -0.0655337323332  0.0089583913073  0.1440695957312 1.0
Ag     2  0.0744922236406  0.0655337323332 -0.1892637376021 1.0
END
