TITL 6Ag2Se-200724-185158-1f28ed 0.0238 350.054475 -6.91983025E+004 0 0 18 (P31) n - 1
REM
REM Run started: Fri, 24 Jul 2020 23:05:05 +0100 in /scratch/scratch/uccabz1/launch_tmp/launcher_2020-07-24-17-51-55-941796
REM CASTEP 19.11| from code version Version unavailable
REM Functional Perdew Burke Ernzerhof Relativity Koelling-Harmon Dispersion off
REM Cut-off 300.0000 eV Grid scale 1.7500 Gmax 15.5288 1/A FBSC none
REM MP grid 4 4 1 Offset 0.000 0.000 0.000 No. kpts 8 Spacing 0.07
REM Total runtime: 16409 s
REM Overall efficiency: 98 %
REM
REM 6Ag2Se.cell (be4689b4cac7b37e3e738b5494392318)
REM
REM compiler GCC version 4.9.2
REM options -cpp -iprefix /scratch/UCL/applications/gcc/4.9.2/bin/../lib/gcc/x86_64-unknown-linux-gnu/4.9.2/ -mtune=corei7 -march=x86-64 -g -O2
REM COMMAND_LINE
REM seed 577698709 -2142220219 -419155856 1682798686 -1021767904 1734162893 358167286 1621488565 1269055469 1258605089 -804762810 -1819264845
REM
REM Se 3|2.1|7|7|9|40:41:32(qc=5)
REM Ag 3|2.2|7|7|9|40U:50:41:42(qc=5)
REM 
CELL 1.54180    4.72542    4.72542   18.10189   90.00000   90.00000  120.00000
LATT -1
SFAC Se Ag 
Se     1  0.0345124373089  0.1656786755191  0.4931856168255 1.0
Se     1  0.1311662382102 -0.0345124373089  0.1598522834921 1.0
Se     1 -0.1656786755191 -0.1311662382102 -0.1734810498412 1.0
Se     1 -0.4949667245212 -0.3265309055062  0.3068817623877 1.0
Se     1  0.1684358190150  0.4949667245212 -0.0264515709456 1.0
Se     1  0.3265309055062 -0.1684358190150 -0.3597849042789 1.0
Ag     2 -0.1692222249625 -0.1752494284605  0.0040051460257 1.0
Ag     2 -0.0060272034981  0.1692222249625 -0.3293281873077 1.0
Ag     2  0.1752494284606  0.0060272034981  0.3373384793590 1.0
Ag     2  0.4408109405001 -0.3773821176032  0.1498992731714 1.0
Ag     2  0.1818069418968 -0.4408109405001 -0.1834340601619 1.0
Ag     2  0.3773821176032 -0.1818069418968  0.4832326065048 1.0
Ag     2 -0.2620228077377  0.2745097796390  0.0922767601904 1.0
Ag     2 -0.4634674126233  0.2620228077377 -0.2410565731429 1.0
Ag     2 -0.2745097796390  0.4634674126233  0.4256100935238 1.0
Ag     2 -0.3301507613906 -0.4878691008393 -0.4087041252674 1.0
Ag     2 -0.1577183394487  0.3301507613906  0.2579625413993 1.0
Ag     2  0.4878691008393  0.1577183394487 -0.0753707919340 1.0
END
