TITL 6Ag2Se-200725-005843-f694e4 -0.0124 370.274112 -6.91977839E+004 0 0 18 (P2221) n - 1
REM
REM Run started: Sat, 25 Jul 2020 02:43:11 +0100 in /scratch/scratch/uccabz1/launch_tmp/launcher_2020-07-24-23-58-41-537387
REM CASTEP 19.11| from code version Version unavailable
REM Functional Perdew Burke Ernzerhof Relativity Koelling-Harmon Dispersion off
REM Cut-off 300.0000 eV Grid scale 1.7500 Gmax 15.5288 1/A FBSC none
REM MP grid 3 3 2 Offset 0.000 0.000 0.000 No. kpts 4 Spacing 0.07
REM Total runtime: 6334.46 s
REM Overall efficiency: 95.2857 %
REM
REM 6Ag2Se.cell (be4689b4cac7b37e3e738b5494392318)
REM
REM compiler GCC version 4.9.2
REM options -cpp -iprefix /scratch/UCL/applications/gcc/4.9.2/bin/../lib/gcc/x86_64-unknown-linux-gnu/4.9.2/ -mtune=corei7 -march=x86-64 -g -O2
REM COMMAND_LINE
REM seed -1564905670 -59730114 -1432562084 1969940094 2106307174 -211458085 1027780380 1029409471 -369560583 -933374785 695956614 1068888848
REM
REM Se 3|2.1|7|7|9|40:41:32(qc=5)
REM Ag 3|2.2|7|7|9|40U:50:41:42(qc=5)
REM 
CELL 1.54180    5.15490    6.96497   10.31298   90.00000   90.00000   90.00000
LATT -1
SFAC Se Ag 
Se     1 -0.3001486710863  0.2643985136649 -0.3259200074824 1.0
Se     1  0.3001486710863 -0.2356014863351  0.3259200074824 1.0
Se     1 -0.3001486710863  0.2356014863351  0.3259200074824 1.0
Se     1  0.3001486710863 -0.2643985136649 -0.3259200074824 1.0
Se     1  0.2744482749427  0.2500000000000  0.0000000000000 1.0
Se     1 -0.2744482749427 -0.2500000000000  0.0000000000000 1.0
Ag     2 -0.2482976934762 -0.4418723243802 -0.5316606397649 1.0
Ag     2  0.2482976934762  0.0581276756198  0.5316606397649 1.0
Ag     2 -0.2482976934762 -0.0581276756198  0.5316606397649 1.0
Ag     2  0.2482976934762  0.4418723243802 -0.5316606397649 1.0
Ag     2 -0.1975690857762 -0.1722251697072  0.2567712742201 1.0
Ag     2  0.1975690857762  0.3277748302928 -0.2567712742201 1.0
Ag     2 -0.1975690857762 -0.3277748302928 -0.2567712742201 1.0
Ag     2  0.1975690857762  0.1722251697072  0.2567712742201 1.0
Ag     2 -0.2404227503615  0.3968094439766  0.0990345018788 1.0
Ag     2  0.2404227503615 -0.1031905560234 -0.0990345018788 1.0
Ag     2 -0.2404227503615  0.1031905560234 -0.0990345018788 1.0
Ag     2  0.2404227503615 -0.3968094439766  0.0990345018788 1.0
END
