TITL 6Ag2Se-200724-093311-ed9c75 0.0088 364.663923 -6.91987268E+004 0 0 18 (P-1) n - 1
REM
REM Run started: Fri, 24 Jul 2020 15:28:33 +0100 in /scratch/scratch/uccabz1/launch_tmp/launcher_2020-07-24-12-16-45-344462
REM CASTEP 19.11| from code version Version unavailable
REM Functional Perdew Burke Ernzerhof Relativity Koelling-Harmon Dispersion off
REM Cut-off 300.0000 eV Grid scale 1.7500 Gmax 15.5288 1/A FBSC none
REM MP grid 4 2 2 Offset 0.000 0.000 0.000 No. kpts 8 Spacing 0.07
REM Total runtime: 8450.91 s
REM Overall efficiency: 97.3333 %
REM
REM
REM
REM compiler GCC version 4.8.5 20150623 (Red Hat 4.8.5-39)
REM options -cpp -mtune=generic -march=x86-64 -g -Og
REM COMMAND_LINE
REM seed 144010934 706088152 -1471532444 1049216772 1029149416 1199749146 -2072283065 1999984470 1201908568 1168817 18540998 -2004684700
REM
REM Se 3|2.1|7|7|9|40:41:32(qc=5)
REM Ag 3|2.2|7|7|9|40U:50:41:42(qc=5)
REM 
CELL 1.54180    4.65874    7.98157    9.88069   85.14799   95.05521   90.42293
LATT -1
SFAC Se Ag 
Se     1 -0.1445529578028  0.3632925052297 -0.1484855392547 1.0
Se     1  0.1445529578028 -0.3632925052297  0.1484855392547 1.0
Se     1 -0.2703078437062 -0.2632935242036 -0.4317279065330 1.0
Se     1  0.2703078437062  0.2632935242036  0.4317279065330 1.0
Se     1 -0.3165333194528  0.0857923029835  0.1432341687227 1.0
Se     1  0.3165333194528 -0.0857923029835 -0.1432341687227 1.0
Ag     2  0.1798409006729 -0.3794519576173 -0.2269311937592 1.0
Ag     2 -0.1798409006729  0.3794519576173  0.2269311937592 1.0
Ag     2  0.2047797109058 -0.0397850824887  0.2415194749230 1.0
Ag     2 -0.2047797109058  0.0397850824887 -0.2415194749230 1.0
Ag     2  0.3148943127547  0.2810638465867 -0.2857333094299 1.0
Ag     2 -0.3148943127547 -0.2810638465867  0.2857333094299 1.0
Ag     2 -0.2146380130022  0.3744409734267 -0.4523348962083 1.0
Ag     2  0.2146380130022 -0.3744409734267  0.4523348962083 1.0
Ag     2  0.2602094441698 -0.0402459832892 -0.4180935668250 1.0
Ag     2 -0.2602094441698  0.0402459832892  0.4180935668250 1.0
Ag     2 -0.3289719583859 -0.3387293360946 -0.0337845410812 1.0
Ag     2  0.3289719583859  0.3387293360946  0.0337845410812 1.0
END
