TITL 6Ag2Se-200724-100936-055d39 -0.0825 401.541510 -6.91993604E+004 0 0 18 (R-3) n - 1
REM
REM Run started: Fri, 24 Jul 2020 17:06:18 +0100 in /scratch/scratch/uccabz1/launch_tmp/launcher_2020-07-24-12-36-38-351846
REM CASTEP 19.11| from code version Version unavailable
REM Functional Perdew Burke Ernzerhof Relativity Koelling-Harmon Dispersion off
REM Cut-off 300.0000 eV Grid scale 1.7500 Gmax 15.5288 1/A FBSC none
REM MP grid 3 3 2 Offset 0.000 0.000 0.000 No. kpts 7 Spacing 0.07
REM Total runtime: 13037.2 s
REM Overall efficiency: 84.2857 %
REM
REM
REM
REM compiler GCC version 4.8.5 20150623 (Red Hat 4.8.5-39)
REM options -cpp -mtune=generic -march=x86-64 -g -Og
REM COMMAND_LINE
REM seed 744355503 1558433349 -1018998505 -183782216 -1554574181 -1120462785 158404973 -2008797987 -1347073052 1146317399 1307124503 -1361883860
REM
REM Se 3|2.1|7|7|9|40:41:32(qc=5)
REM Ag 3|2.2|7|7|9|40U:50:41:42(qc=5)
REM 
CELL 1.54180    7.93101    7.93101    8.67772   62.80789   62.80789   60.00000
LATT -1
SFAC Se Ag 
Se     1  0.2678253145010 -0.3436213922398  0.1759659286773 1.0
Se     1 -0.1001698509385  0.2678253145010  0.1759659286773 1.0
Se     1 -0.3436213922398 -0.1001698509385  0.1759659286773 1.0
Se     1  0.0829584768322 -0.1616770617751 -0.3895587689225 1.0
Se     1  0.4682773538654  0.0829584768322 -0.3895587689225 1.0
Se     1 -0.1616770617751  0.4682773538654 -0.3895587689225 1.0
Ag     2  0.0346636227889  0.4707135720587 -0.7633516789295 1.0
Ag     2  0.2579744840819  0.0346636227889 -0.7633516789295 1.0
Ag     2  0.4707135720587  0.2579744840819 -0.7633516789295 1.0
Ag     2  0.1676120530977 -0.2085050155560 -0.1150262185968 1.0
Ag     2  0.1559191810551  0.1676120530977 -0.1150262185968 1.0
Ag     2 -0.2085050155560  0.1559191810551 -0.1150262185968 1.0
Ag     2  0.4809277777290 -0.2975754464056 -0.4496018870661 1.0
Ag     2  0.2662495557427  0.4809277777290 -0.4496018870661 1.0
Ag     2 -0.2975754464056  0.2662495557427 -0.4496018870661 1.0
Ag     2 -0.4298278960552 -0.0538704543936  0.9017216248377 1.0
Ag     2 -0.4180232743889 -0.4298278960552  0.9017216248377 1.0
Ag     2 -0.0538704543936 -0.4180232743889  0.9017216248377 1.0
END
