TITL 6Ag2Se-200724-183011-76071b -0.0049 369.131996 -6.91981222E+004 0 0 18 (Pc) n - 1
REM
REM Run started: Sat, 25 Jul 2020 00:00:55 +0100 in /scratch/scratch/uccabz1/launch_tmp/launcher_2020-07-24-17-30-09-901633
REM CASTEP 19.11| from code version Version unavailable
REM Functional Perdew Burke Ernzerhof Relativity Koelling-Harmon Dispersion off
REM Cut-off 300.0000 eV Grid scale 1.7500 Gmax 15.5288 1/A FBSC none
REM MP grid 3 3 2 Offset 0.000 0.000 0.000 No. kpts 5 Spacing 0.07
REM Total runtime: 21771.5 s
REM Overall efficiency: 97.9167 %
REM
REM 6Ag2Se.cell (be4689b4cac7b37e3e738b5494392318)
REM
REM compiler GCC version 4.9.2
REM options -cpp -iprefix /scratch/UCL/applications/gcc/4.9.2/bin/../lib/gcc/x86_64-unknown-linux-gnu/4.9.2/ -mtune=corei7 -march=x86-64 -g -O2
REM COMMAND_LINE
REM seed 2018469062 -375784659 -413055786 1917289240 -1159649699 1671838590 -900412707 -1727603826 1721965914 -641550160 203055134 -1592784253
REM
REM Se 3|2.1|7|7|9|40:41:32(qc=5)
REM Ag 3|2.2|7|7|9|40U:50:41:42(qc=5)
REM 
CELL 1.54180    6.30185    6.68722    9.60820   90.00000   90.00000  114.26624
LATT -1
SFAC Se Ag 
Se     1  0.4620240984553 -0.0616465838483  0.2159209905271 1.0
Se     1 -0.0379759015447 -0.0616465838483 -0.2159209905271 1.0
Se     1  0.3781908244964  0.5194382252250 -0.1168652141434 1.0
Se     1 -0.1218091755036  0.5194382252250  0.1168652141434 1.0
Se     1  0.3065548296135  0.3261162562480  0.3865938316588 1.0
Se     1 -0.1934451703865  0.3261162562480 -0.3865938316588 1.0
Ag     2  0.1895787837437 -0.3139505549442 -0.3123804498095 1.0
Ag     2 -0.3104212162563 -0.3139505549442  0.3123804498095 1.0
Ag     2 -0.0900931486228  0.1707946207891  0.2543909907762 1.0
Ag     2  0.4099068513772  0.1707946207891 -0.2543909907762 1.0
Ag     2 -0.4056171049173 -0.3927521523333 -0.3862502726768 1.0
Ag     2  0.0943828950827 -0.3927521523333  0.3862502726768 1.0
Ag     2  0.2251553785648 -0.1554817555282 -0.0261350290551 1.0
Ag     2 -0.2748446214352 -0.1554817555282  0.0261350290551 1.0
Ag     2 -0.1204432872545  0.2831852784119 -0.1051640233157 1.0
Ag     2  0.3795567127455  0.2831852784119  0.1051640233157 1.0
Ag     2  0.0082759259209 -0.0296715340199  0.5081650066495 1.0
Ag     2 -0.4917240740791 -0.0296715340199 -0.5081650066495 1.0
END
