TITL 6Ag2Se-200724-105521-592e34 -0.0457 382.481056 -6.91988630E+004 0 0 18 (Cc) n - 1
REM
REM Run started: Fri, 24 Jul 2020 15:56:12 +0100 in /scratch/scratch/uccabz1/launch_tmp/launcher_2020-07-24-09-55-19-389796
REM CASTEP 19.11| from code version Version unavailable
REM Functional Perdew Burke Ernzerhof Relativity Koelling-Harmon Dispersion off
REM Cut-off 300.0000 eV Grid scale 1.7500 Gmax 15.5288 1/A FBSC none
REM MP grid 3 3 3 Offset 0.000 0.000 0.000 No. kpts 10 Spacing 0.07
REM Total runtime: 17867.2 s
REM Overall efficiency: 97.3 %
REM
REM 6Ag2Se.cell (be4689b4cac7b37e3e738b5494392318)
REM
REM compiler GCC version 4.9.2
REM options -cpp -iprefix /scratch/UCL/applications/gcc/4.9.2/bin/../lib/gcc/x86_64-unknown-linux-gnu/4.9.2/ -mtune=corei7 -march=x86-64 -g -O2
REM COMMAND_LINE
REM seed 1065639245 179973625 44745382 376634165 1210729929 635651749 316263879 1650694298 2029769226 -223125787 -1982898490 1445824017
REM
REM Se 3|2.1|7|7|9|40:41:32(qc=5)
REM Ag 3|2.2|7|7|9|40U:50:41:42(qc=5)
REM 
CELL 1.54180    7.79561    7.26702    7.94153  100.98878  119.39406   90.00000
LATT -1
SFAC Se Ag 
Se     1  0.1630867992802  0.1023903869751  0.0718070577126 1.0
Se     1 -0.0912797415675 -0.3976096130249  0.0718070577126 1.0
Se     1 -0.2012012672154  0.0735874007576  0.3835064295714 1.0
Se     1 -0.4152923032132 -0.4264125992424  0.3835064295714 1.0
Se     1 -0.4815412192379  0.1573260329627 -0.1896817323632 1.0
Se     1  0.2918594868746 -0.3426739670373 -0.1896817323632 1.0
Ag     2  0.1840244006993  0.0591516264247 -0.5275222521257 1.0
Ag     2  0.2884533471750 -0.4408483735753 -0.5275222521257 1.0
Ag     2  0.0115102459476  0.3933470052630 -0.4124569266056 1.0
Ag     2 -0.4239671725532 -0.1066529947370 -0.4124569266056 1.0
Ag     2 -0.0521114926642 -0.2334068342832 -0.2037877734122 1.0
Ag     2 -0.1516762807480  0.2665931657168 -0.2037877734122 1.0
Ag     2 -0.0613753106952 -0.2676019418912  0.4283796899924 1.0
Ag     2  0.4897550006875  0.2323980581088  0.4283796899924 1.0
Ag     2  0.2717262096467 -0.2286466301917  0.1896567083629 1.0
Ag     2 -0.0820695012838  0.2713533698083  0.1896567083629 1.0
Ag     2  0.3093753129736  0.3726817539829 -0.0171187011326 1.0
Ag     2 -0.3264940141061 -0.1273182460171 -0.0171187011326 1.0
END
