TITL 6Ag2Se-200724-192421-935cad -0.0462 380.460963 -6.91972190E+004 0 0 18 (R3) n - 1
REM
REM Run started: Fri, 24 Jul 2020 20:13:22 +0100 in /rds/user/bz240/hpc-work/airss-fw/launch_tmp/launcher_2020-07-24-18-24-18-883162
REM CASTEP 19.11| from code version Version unavailable
REM Functional Perdew Burke Ernzerhof Relativity Koelling-Harmon Dispersion off
REM Cut-off 300.0000 eV Grid scale 1.7500 Gmax 15.5288 1/A FBSC none
REM MP grid 2 2 2 Offset 0.000 0.000 0.000 No. kpts 2 Spacing 0.07
REM Total runtime: 3104.08 s
REM Overall efficiency: 87.3333 %
REM
REM 6Ag2Se.cell (be4689b4cac7b37e3e738b5494392318)
REM
REM compiler GCC version 4.8.5 20150623 (Red Hat 4.8.5-39)
REM options -cpp -mtune=generic -march=x86-64 -g -Og
REM COMMAND_LINE
REM seed 1607412490 -363775913 -322706396 1752760254 -1703911673 -1428986174 2006049074 -108215506 1909750573 1855895623 -261879758 -170920578
REM
REM Se 3|2.1|7|7|9|40:41:32(qc=5)
REM Ag 3|2.2|7|7|9|40U:50:41:42(qc=5)
REM 
CELL 1.54180    7.26972    7.26972    7.26972   85.26061   85.26061   85.26061
LATT -1
SFAC Se Ag 
Se     1  0.4550550123465 -0.3486161363469  0.1552782181833 1.0
Se     1 -0.3486161363469  0.1552782181833  0.4550550123465 1.0
Se     1  0.1552782181833  0.4550550123465 -0.3486161363469 1.0
Se     1 -0.0932878147886 -0.2352857869055  0.2337553048828 1.0
Se     1 -0.2352857869055  0.2337553048828 -0.0932878147886 1.0
Se     1  0.2337553048828 -0.0932878147886 -0.2352857869055 1.0
Ag     2  0.4971602845442  0.4452933126418 -0.2465420373590 1.0
Ag     2  0.4452933126418 -0.2465420373590  0.4971602845442 1.0
Ag     2 -0.2465420373590  0.4971602845442  0.4452933126418 1.0
Ag     2  0.1946971450215 -0.0400317857411  0.2810634135630 1.0
Ag     2 -0.0400317857411  0.2810634135630  0.1946971450215 1.0
Ag     2  0.2810634135630  0.1946971450215 -0.0400317857411 1.0
Ag     2 -0.3973370532666 -0.0581073539810 -0.2302450282573 1.0
Ag     2 -0.0581073539810 -0.2302450282573 -0.3973370532666 1.0
Ag     2 -0.2302450282573 -0.3973370532666 -0.0581073539810 1.0
Ag     2 -0.0122960491460  0.1539742785642 -0.4121400239549 1.0
Ag     2  0.1539742785642 -0.4121400239549 -0.0122960491460 1.0
Ag     2 -0.4121400239549 -0.0122960491460  0.1539742785642 1.0
END
