TITL 6Ag2Se-200725-062116-cf1874 0.0424 360.480924 -6.91979833E+004 0 0 18 (R-3) n - 1
REM
REM Run started: Sat, 25 Jul 2020 07:25:34 +0100 in /scratch/scratch/uccabz1/launch_tmp/launcher_2020-07-25-05-21-14-855819
REM CASTEP 19.11| from code version Version unavailable
REM Functional Perdew Burke Ernzerhof Relativity Koelling-Harmon Dispersion off
REM Cut-off 300.0000 eV Grid scale 1.7500 Gmax 15.5288 1/A FBSC none
REM MP grid 3 3 3 Offset 0.000 0.000 0.000 No. kpts 6 Spacing 0.07
REM Total runtime: 4455.57 s
REM Overall efficiency: 96.8333 %
REM
REM 6Ag2Se.cell (be4689b4cac7b37e3e738b5494392318)
REM
REM compiler GCC version 4.9.2
REM options -cpp -iprefix /scratch/UCL/applications/gcc/4.9.2/bin/../lib/gcc/x86_64-unknown-linux-gnu/4.9.2/ -mtune=corei7 -march=x86-64 -g -O2
REM COMMAND_LINE
REM seed -429350517 932828709 -1804154051 1035355312 -101878624 1170243639 940826558 -1180564836 829121119 -2143908342 301537204 818698135
REM
REM Se 3|2.1|7|7|9|40:41:32(qc=5)
REM Ag 3|2.2|7|7|9|40U:50:41:42(qc=5)
REM 
CELL 1.54180    7.25656    7.25656    7.25656   78.10031   78.10031   78.10031
LATT -1
SFAC Se Ag 
Se     1  0.1481039022628  0.5073546143711  0.0159750173895 1.0
Se     1  0.5073546143711  0.0159749173895  0.1481040022628 1.0
Se     1  0.0159749173895  0.1481039022628  0.5073547143711 1.0
Se     1  0.4046600856289 -0.1039602173895 -0.2360891022628 1.0
Se     1 -0.1039602173895 -0.2360892022628  0.4046601856289 1.0
Se     1 -0.2360892022628  0.4046600856289 -0.1039601173895 1.0
Ag     2 -0.2868850332505  0.0617693022678 -0.2313930429838 1.0
Ag     2  0.0617693022678 -0.2313931429838 -0.2868849332505 1.0
Ag     2 -0.2313931429838 -0.2868850332505  0.0617694022678 1.0
Ag     2 -0.2554504760845  0.4442186341470  0.4265071648522 1.0
Ag     2  0.4442186341470  0.4265070648522 -0.2554503760845 1.0
Ag     2  0.4265070648522 -0.2554504760845  0.4442187341470 1.0
Ag     2  0.1988997332505 -0.1497546022678  0.1434079429838 1.0
Ag     2 -0.1497546022678  0.1434078429838  0.1988998332505 1.0
Ag     2  0.1434078429838  0.1988997332505 -0.1497545022678 1.0
Ag     2  0.1674651760845  0.4677960658530 -0.5144922648522 1.0
Ag     2  0.4677960658530 -0.5144923648522  0.1674652760845 1.0
Ag     2 -0.5144923648522  0.1674651760845  0.4677961658530 1.0
END
