TITL 6Ag2Se-200724-182836-6ca79f 0.0660 378.990064 -6.91973900E+004 0 0 18 (P2) n - 1
REM
REM Run started: Fri, 24 Jul 2020 22:28:01 +0100 in /scratch/scratch/uccabz1/launch_tmp/launcher_2020-07-24-17-28-33-947065
REM CASTEP 19.11| from code version Version unavailable
REM Functional Perdew Burke Ernzerhof Relativity Koelling-Harmon Dispersion off
REM Cut-off 300.0000 eV Grid scale 1.7500 Gmax 15.5288 1/A FBSC none
REM MP grid 3 3 2 Offset 0.000 0.000 0.000 No. kpts 5 Spacing 0.07
REM Total runtime: 14660.4 s
REM Overall efficiency: 97.1818 %
REM
REM 6Ag2Se.cell (be4689b4cac7b37e3e738b5494392318)
REM
REM compiler GCC version 4.9.2
REM options -cpp -iprefix /scratch/UCL/applications/gcc/4.9.2/bin/../lib/gcc/x86_64-unknown-linux-gnu/4.9.2/ -mtune=corei7 -march=x86-64 -g -O2
REM COMMAND_LINE
REM seed 1067913224 -560423130 1292343752 -1593421249 1899544808 2108576525 -158286596 -1808499356 -138466287 -2146233867 -719755330 -2057975337
REM
REM Se 3|2.1|7|7|9|40:41:32(qc=5)
REM Ag 3|2.2|7|7|9|40U:50:41:42(qc=5)
REM 
CELL 1.54180    5.48688    7.01298   10.31680   90.00000   90.00000  107.31681
LATT -1
SFAC Se Ag 
Se     1 -0.3566729282414 -0.2227570804816  0.3983271881299 1.0
Se     1  0.3566729282414  0.2227570804816  0.3983271881299 1.0
Se     1 -0.3074238135413 -0.1750864142737 -0.1806022527987 1.0
Se     1  0.3074238135413  0.1750864142737 -0.1806022527987 1.0
Se     1  0.1315829054523 -0.2115969893388  0.1049403840497 1.0
Se     1 -0.1315829054523  0.2115969893388  0.1049403840497 1.0
Ag     2  0.3699637926276  0.1918725150749  0.0782732965192 1.0
Ag     2 -0.3699637926276 -0.1918725150749  0.0782732965192 1.0
Ag     2  0.1423209053068 -0.2768660584579 -0.1519474663489 1.0
Ag     2 -0.1423209053068  0.2768660584579 -0.1519474663489 1.0
Ag     2 -0.2519970877870 -0.4994496439091  0.2363763903239 1.0
Ag     2  0.2519970877870  0.4994496439091  0.2363763903239 1.0
Ag     2  0.3989579867182 -0.2178580611036 -0.3840514342896 1.0
Ag     2 -0.3989579867182  0.2178580611036 -0.3840514342896 1.0
Ag     2 -0.1475598854726  0.1782895022329  0.3830921145981 1.0
Ag     2  0.1475598854726 -0.1782895022329  0.3830921145981 1.0
Ag     2 -0.1532006737788 -0.3665317193235 -0.3843611201836 1.0
Ag     2  0.1532006737788  0.3665317193235 -0.3843611201836 1.0
END
