TITL 6Ag2Se-200724-183207-1f900b 0.0220 349.119591 -6.91973539E+004 0 0 18 (P32) n - 1
REM
REM Run started: Fri, 24 Jul 2020 21:52:32 +0100 in /scratch/scratch/uccabz1/launch_tmp/launcher_2020-07-24-17-32-05-882509
REM CASTEP 19.11| from code version Version unavailable
REM Functional Perdew Burke Ernzerhof Relativity Koelling-Harmon Dispersion off
REM Cut-off 300.0000 eV Grid scale 1.7500 Gmax 15.5288 1/A FBSC none
REM MP grid 3 2 2 Offset 0.000 0.000 0.000 No. kpts 6 Spacing 0.07
REM Total runtime: 12136.8 s
REM Overall efficiency: 96.8889 %
REM
REM 6Ag2Se.cell (be4689b4cac7b37e3e738b5494392318)
REM
REM compiler GCC version 4.9.2
REM options -cpp -iprefix /scratch/UCL/applications/gcc/4.9.2/bin/../lib/gcc/x86_64-unknown-linux-gnu/4.9.2/ -mtune=corei7 -march=x86-64 -g -O2
REM COMMAND_LINE
REM seed -422055535 572940097 -1695111318 1250504770 -1790969284 195870790 -740834843 1872585998 2122258560 -1088121123 -239053780 405895631
REM
REM Se 3|2.1|7|7|9|40:41:32(qc=5)
REM Ag 3|2.2|7|7|9|40U:50:41:42(qc=5)
REM 
CELL 1.54180    5.34857    8.68167    8.68167  120.00000   90.00000   90.00000
LATT -1
SFAC Se Ag 
Se     1 -0.3877406807203 -0.4152717389541 -0.2585164462035 1.0
Se     1  0.2789259859464  0.2585164462035 -0.1567552927506 1.0
Se     1 -0.0544073473870  0.1567552927506  0.4152717389541 1.0
Se     1  0.4277839130516 -0.1318600648909  0.1796979030214 1.0
Se     1  0.0944505797183 -0.1796979030214 -0.3115579679122 1.0
Se     1 -0.2388827536150  0.3115579679122  0.1318600648909 1.0
Ag     2 -0.3955781396360 -0.0712233926757 -0.1897359806266 1.0
Ag     2  0.2710885270306  0.1897359806266  0.1185125879509 1.0
Ag     2 -0.0622448063027 -0.1185125879509  0.0712233926757 1.0
Ag     2  0.4449530169006  0.2638697009266  0.4687931337162 1.0
Ag     2  0.1116196835672 -0.4687931337162 -0.2049234327897 1.0
Ag     2 -0.2217136497661  0.2049234327897 -0.2638697009266 1.0
Ag     2  0.3612447419460 -0.0444794424564 -0.4839215604002 1.0
Ag     2  0.0279114086127  0.4839215604002  0.4394421179438 1.0
Ag     2 -0.3054219247206 -0.4394421179438  0.0444794424564 1.0
Ag     2 -0.1404691848753 -0.1613717739507  0.4109241872779 1.0
Ag     2  0.5261974817914 -0.4109241872779  0.4277040387714 1.0
Ag     2  0.1928641484581 -0.4277040387714  0.1613717739507 1.0
END
