TITL 6Ag2Se-200725-080524-3b2c1d 0.0036 377.936995 -6.91977322E+004 0 0 18 (P32) n - 1
REM
REM Run started: Sat, 25 Jul 2020 11:47:13 +0100 in /scratch/scratch/uccabz1/launch_tmp/launcher_2020-07-25-07-05-22-379481
REM CASTEP 19.11| from code version Version unavailable
REM Functional Perdew Burke Ernzerhof Relativity Koelling-Harmon Dispersion off
REM Cut-off 300.0000 eV Grid scale 1.7500 Gmax 15.5288 1/A FBSC none
REM MP grid 4 4 1 Offset 0.000 0.000 0.000 No. kpts 8 Spacing 0.07
REM Total runtime: 13242.7 s
REM Overall efficiency: 92.4 %
REM
REM 6Ag2Se.cell (be4689b4cac7b37e3e738b5494392318)
REM
REM compiler GCC version 4.9.2
REM options -cpp -iprefix /scratch/UCL/applications/gcc/4.9.2/bin/../lib/gcc/x86_64-unknown-linux-gnu/4.9.2/ -mtune=corei7 -march=x86-64 -g -O2
REM COMMAND_LINE
REM seed 1377847941 -543025799 -196012255 1179352767 1878267252 26994048 -739086557 -1366085571 1569563497 -10918109 1062061881 -237782100
REM
REM Se 3|2.1|7|7|9|40:41:32(qc=5)
REM Ag 3|2.2|7|7|9|40U:50:41:42(qc=5)
REM 
CELL 1.54180    5.42244    5.42244   14.84222   90.00000   90.00000  120.00000
LATT -1
SFAC Se Ag 
Se     1  0.2949010120043 -0.3554084709225  0.1784748786567 1.0
Se     1  0.3496904170732 -0.2949010120043 -0.4881917880100 1.0
Se     1  0.3554084709225 -0.3496904170732 -0.1548584546767 1.0
Se     1 -0.0462257718823 -0.0243651761311  0.0370426526633 1.0
Se     1  0.0218604957512  0.0462257718823  0.3703759859967 1.0
Se     1  0.0243651761311 -0.0218604957512 -0.2962906806700 1.0
Ag     2  0.1041271784932 -0.3945183117342  0.3477905299277 1.0
Ag     2 -0.4986455902274 -0.1041271784932 -0.3188761367390 1.0
Ag     2  0.3945183117342  0.4986455902274  0.0144571965944 1.0
Ag     2 -0.0797298606187  0.4439635193474 -0.2773174200729 1.0
Ag     2  0.5236932799661  0.0797298606187  0.0560159132604 1.0
Ag     2 -0.4439635193474 -0.5236932799661  0.3893492465937 1.0
Ag     2 -0.3599181474844  0.1079675298318  0.2685917564100 1.0
Ag     2 -0.5321144226838  0.3599181474844 -0.3980749102567 1.0
Ag     2 -0.1079675298318  0.5321144226838 -0.0647415769233 1.0
Ag     2  0.3532315390785  0.1448921263010 -0.1431064975847 1.0
Ag     2 -0.2083395127775 -0.3532315390785  0.1902268357486 1.0
Ag     2 -0.1448921263010  0.2083395127775 -0.4764398309181 1.0
END
