TITL 6Ag2Se-200724-215004-507105 -0.0006 365.246777 -6.91975409E+004 0 0 18 (P32) n - 1
REM
REM Run started: Sat, 25 Jul 2020 02:41:05 +0100 in /scratch/scratch/uccabz1/launch_tmp/launcher_2020-07-24-20-50-02-806230
REM CASTEP 19.11| from code version Version unavailable
REM Functional Perdew Burke Ernzerhof Relativity Koelling-Harmon Dispersion off
REM Cut-off 300.0000 eV Grid scale 1.7500 Gmax 15.5288 1/A FBSC none
REM MP grid 4 2 2 Offset 0.000 0.000 0.000 No. kpts 8 Spacing 0.07
REM Total runtime: 20232.6 s
REM Overall efficiency: 98 %
REM
REM 6Ag2Se.cell (be4689b4cac7b37e3e738b5494392318)
REM
REM compiler GCC version 4.9.2
REM options -cpp -iprefix /scratch/UCL/applications/gcc/4.9.2/bin/../lib/gcc/x86_64-unknown-linux-gnu/4.9.2/ -mtune=corei7 -march=x86-64 -g -O2
REM COMMAND_LINE
REM seed -1992025451 2006287482 -801446274 1322407185 1594212364 -2140948654 -1415829410 1881415111 -755436039 1399354611 -2029422545 173958741
REM
REM Se 3|2.1|7|7|9|40:41:32(qc=5)
REM Ag 3|2.2|7|7|9|40U:50:41:42(qc=5)
REM 
CELL 1.54180    4.64225    9.53155    9.53155  120.00000   90.00000   90.00000
LATT -1
SFAC Se Ag 
Se     1 -0.4809638157174  0.4518970422274  0.2650069877776 1.0
Se     1  0.1857028509492 -0.2650069877776  0.1868900544498 1.0
Se     1 -0.1476304823841 -0.1868900544498 -0.4518970422274 1.0
Se     1 -0.0576212163494  0.1774435756124  0.3845298239942 1.0
Se     1 -0.3909545496827 -0.3845298239942 -0.2070862483818 1.0
Se     1  0.2757121169840  0.2070862483818 -0.1774435756124 1.0
Ag     2 -0.2305787048151  0.1807397812134 -0.3396622478991 1.0
Ag     2  0.4360879618516  0.3396622478991 -0.4795979708875 1.0
Ag     2  0.1027546285182  0.4795979708875 -0.1807397812134 1.0
Ag     2  0.1489433276049 -0.1511754354687 -0.0184261199668 1.0
Ag     2 -0.1843900057284  0.0184261199668 -0.1327493155018 1.0
Ag     2 -0.5177233390618  0.1327493155018  0.1511754354687 1.0
Ag     2 -0.0516133675557 -0.4816604874249 -0.4931354684323 1.0
Ag     2 -0.3849467008890  0.4931354684323  0.0114749810074 1.0
Ag     2  0.2817199657777 -0.0114749810074  0.4816604874249 1.0
Ag     2  0.0119734101661  0.3170608658883  0.1251912503452 1.0
Ag     2 -0.3213599231673 -0.1251912503452  0.1918696155432 1.0
Ag     2  0.3453067434994 -0.1918696155432 -0.3170608658883 1.0
END
