TITL 6Ag2Se-200724-184639-d63153 0.0128 366.644767 -6.91984751E+004 0 0 18 (P21) n - 1
REM
REM Run started: Fri, 24 Jul 2020 23:30:14 +0100 in /scratch/scratch/uccabz1/launch_tmp/launcher_2020-07-24-17-46-36-262629
REM CASTEP 19.11| from code version Version unavailable
REM Functional Perdew Burke Ernzerhof Relativity Koelling-Harmon Dispersion off
REM Cut-off 300.0000 eV Grid scale 1.7500 Gmax 15.5288 1/A FBSC none
REM MP grid 4 2 2 Offset 0.000 0.000 0.000 No. kpts 4 Spacing 0.07
REM Total runtime: 17349.6 s
REM Overall efficiency: 97.2727 %
REM
REM 6Ag2Se.cell (be4689b4cac7b37e3e738b5494392318)
REM
REM compiler GCC version 4.9.2
REM options -cpp -iprefix /scratch/UCL/applications/gcc/4.9.2/bin/../lib/gcc/x86_64-unknown-linux-gnu/4.9.2/ -mtune=corei7 -march=x86-64 -g -O2
REM COMMAND_LINE
REM seed -1633926099 1772420531 -571072093 -2010740735 831414705 558259065 1578576625 881088779 1431297235 153360780 1122576820 854814703
REM
REM Se 3|2.1|7|7|9|40:41:32(qc=5)
REM Ag 3|2.2|7|7|9|40U:50:41:42(qc=5)
REM 
CELL 1.54180    4.20163    8.63263   10.50554   90.00000   90.00000   74.19678
LATT -1
SFAC Se Ag 
Se     1 -0.4286969664967  0.2941074991526 -0.2340438428366 1.0
Se     1  0.4286969664967 -0.2941074991526  0.2659561571634 1.0
Se     1 -0.1412490444562  0.0739327823058  0.4168673523473 1.0
Se     1  0.1412490444562 -0.0739327823058 -0.0831326476527 1.0
Se     1 -0.1240131805406 -0.3064739280996 -0.3429585096097 1.0
Se     1  0.1240131805406  0.3064739280996  0.1570414903903 1.0
Ag     2  0.4113188279756 -0.3648278843871 -0.1727377683691 1.0
Ag     2 -0.4113188279756  0.3648278843871  0.3272622316309 1.0
Ag     2  0.5125347728028  0.5065900948889 -0.4305648575677 1.0
Ag     2 -0.5125347728028 -0.5065900948889  0.0694351424323 1.0
Ag     2 -0.1009536670621  0.0042617997622 -0.3247746262941 1.0
Ag     2  0.1009536670621 -0.0042617997622  0.1752253737059 1.0
Ag     2 -0.1886929080447 -0.2564623251405  0.0385808947788 1.0
Ag     2  0.1886929080447  0.2564623251405  0.5385808947788 1.0
Ag     2  0.0229290332377  0.4035403441535 -0.1011344121079 1.0
Ag     2 -0.0229290332377 -0.4035403441535  0.3988655878921 1.0
Ag     2 -0.4482896912756  0.1117927831627 -0.0047999303411 1.0
Ag     2  0.4482896912756 -0.1117927831627 -0.5047999303411 1.0
END
