TITL 6Ag2Se-200724-214246-8b583c 0.2284 393.488444 -6.91984828E+004 0 0 18 (C2) n - 1
REM
REM Run started: Sat, 25 Jul 2020 04:50:48 +0100 in /scratch/scratch/uccabz1/launch_tmp/launcher_2020-07-24-20-42-44-161666
REM CASTEP 19.11| from code version Version unavailable
REM Functional Perdew Burke Ernzerhof Relativity Koelling-Harmon Dispersion off
REM Cut-off 300.0000 eV Grid scale 1.7500 Gmax 15.5288 1/A FBSC none
REM MP grid 3 3 2 Offset 0.000 0.000 0.000 No. kpts 6 Spacing 0.07
REM Total runtime: 29012.9 s
REM Overall efficiency: 98.25 %
REM
REM 6Ag2Se.cell (be4689b4cac7b37e3e738b5494392318)
REM
REM compiler GCC version 4.9.2
REM options -cpp -iprefix /scratch/UCL/applications/gcc/4.9.2/bin/../lib/gcc/x86_64-unknown-linux-gnu/4.9.2/ -mtune=corei7 -march=x86-64 -g -O2
REM COMMAND_LINE
REM seed -1027400168 573090672 777630667 -1219405394 -1436720735 917304266 1137199774 438376164 -421560265 1267773221 -1284075844 378090822
REM
REM Se 3|2.1|7|7|9|40:41:32(qc=5)
REM Ag 3|2.2|7|7|9|40U:50:41:42(qc=5)
REM 
CELL 1.54180    7.85016    7.71927    9.02968   73.75918   56.63131   59.43751
LATT -1
SFAC Se Ag 
Se     1 -0.0287592160083  0.2211146890823 -0.3156501453061 1.0
Se     1 -0.1923554730740  0.2211146890823  0.3156501453061 1.0
Se     1  0.0669931692905 -0.3372763253536  0.2954332779118 1.0
Se     1  0.2702831560630 -0.3372763253536 -0.2954332779118 1.0
Se     1 -0.4923357115167 -0.0195615276924 -0.2827895316906 1.0
Se     1  0.5118972392092 -0.0195615276924  0.2827895316906 1.0
Ag     2  0.2714205235723 -0.1334668201120  0.2619867453049 1.0
Ag     2 -0.1379537034603 -0.1334668201120 -0.2619867453049 1.0
Ag     2 -0.3640618149332 -0.4027157489349  0.3558681050326 1.0
Ag     2 -0.2332224361319 -0.4027157489349 -0.3558681050326 1.0
Ag     2  0.1269994125730  0.1251753433312 -0.0000899043249 1.0
Ag     2 -0.2521747559042  0.1251753433312  0.0000899043249 1.0
Ag     2 -0.4714091512254  0.2986368209987 -0.2129960390547 1.0
Ag     2  0.1727723302267  0.2986368209987  0.2129960390547 1.0
Ag     2  0.4431133860879  0.4160086434242  0.2868721347164 1.0
Ag     2  0.1408779704880  0.4160086434242 -0.2868721347164 1.0
Ag     2  0.3631904635545 -0.3105022747435 -0.0381532736051 1.0
Ag     2 -0.0526881888110 -0.3105022747435  0.0381532736051 1.0
END
