TITL 6Ag2Se-200724-235639-caa294 0.0474 344.287442 -6.91979565E+004 0 0 18 (P32) n - 1
REM
REM Run started: Sat, 25 Jul 2020 01:24:03 +0100 in /rds/user/bz240/hpc-work/airss-fw/launch_tmp/launcher_2020-07-24-22-56-37-284497
REM CASTEP 19.11| from code version Version unavailable
REM Functional Perdew Burke Ernzerhof Relativity Koelling-Harmon Dispersion off
REM Cut-off 300.0000 eV Grid scale 1.7500 Gmax 15.5288 1/A FBSC none
REM MP grid 4 4 1 Offset 0.000 0.000 0.000 No. kpts 8 Spacing 0.07
REM Total runtime: 5584.59 s
REM Overall efficiency: 96.6667 %
REM
REM 6Ag2Se.cell (be4689b4cac7b37e3e738b5494392318)
REM
REM compiler GCC version 4.8.5 20150623 (Red Hat 4.8.5-39)
REM options -cpp -mtune=generic -march=x86-64 -g -Og
REM COMMAND_LINE
REM seed 751886488 -1124974023 -609820241 -489101810 1509517365 -2047592268 1953271207 -811992443 -1174861815 -1898178271 322489577 548282327
REM
REM Se 3|2.1|7|7|9|40:41:32(qc=5)
REM Ag 3|2.2|7|7|9|40U:50:41:42(qc=5)
REM 
CELL 1.54180    4.66765    4.66765   18.24713   90.00000   90.00000  120.00000
LATT -1
SFAC Se Ag 
Se     1 -0.2854822287546  0.3405246990465 -0.4091520500876 1.0
Se     1 -0.3739931721989  0.2854822287546 -0.0758187167542 1.0
Se     1 -0.3405246990465  0.3739931721989  0.2575146165791 1.0
Se     1 -0.0251843551004 -0.0486149620901 -0.2261095947504 1.0
Se     1 -0.0234307069897  0.0251843551004  0.1072237385829 1.0
Se     1  0.0486149620901  0.0234307069897  0.4405570719163 1.0
Ag     2  0.3023147869521 -0.3867363106053 -0.1616257292120 1.0
Ag     2  0.3109488024426 -0.3023147869521  0.1717076041213 1.0
Ag     2  0.3867363106053 -0.3109488024426 -0.4949590625454 1.0
Ag     2  0.0422667116094  0.0020963039444 -0.4001020853777 1.0
Ag     2 -0.0401705076650 -0.0422667116094 -0.0667687520444 1.0
Ag     2 -0.0020963039444  0.0401705076650  0.2665645812889 1.0
Ag     2  0.2967438676466 -0.3501012228619  0.0056334432685 1.0
Ag     2  0.3531548094915 -0.2967438676466  0.3389667766019 1.0
Ag     2  0.3501012228619 -0.3531548094915 -0.3276998900648 1.0
Ag     2 -0.3543400667211  0.2880824415150 -0.2542408838408 1.0
Ag     2 -0.3575775917638  0.3543400667211  0.0790924494925 1.0
Ag     2 -0.2880824415150  0.3575775917638  0.4124257828259 1.0
END
