TITL 6Ag2Se-200725-081103-4c5d66 0.0278 354.997281 -6.91990390E+004 0 0 18 (C2/m) n - 1
REM
REM Run started: Sat, 25 Jul 2020 15:48:19 +0100 in /scratch/scratch/uccabz1/launch_tmp/launcher_2020-07-25-13-58-36-272833
REM CASTEP 19.11| from code version Version unavailable
REM Functional Perdew Burke Ernzerhof Relativity Koelling-Harmon Dispersion off
REM Cut-off 300.0000 eV Grid scale 1.7500 Gmax 15.5288 1/A FBSC none
REM MP grid 3 3 2 Offset 0.000 0.000 0.000 No. kpts 9 Spacing 0.07
REM Total runtime: 6017.93 s
REM Overall efficiency: 78.4 %
REM
REM
REM
REM compiler GCC version 4.9.2
REM options -cpp -iprefix /scratch/UCL/applications/gcc/4.9.2/bin/../lib/gcc/x86_64-unknown-linux-gnu/4.9.2/ -mtune=corei7 -march=x86-64 -g -O2
REM COMMAND_LINE
REM seed 1750847801 49064220 -1420255127 1832740697 -226067172 1500699920 45878885 -961056957 407077055 -937573238 -2112389628 1566494089
REM
REM Se 3|2.1|7|7|9|40:41:32(qc=5)
REM Ag 3|2.2|7|7|9|40U:50:41:42(qc=5)
REM 
CELL 1.54180    5.71804    8.05554   10.02142  124.88913  106.57624   90.00000
LATT -1
SFAC Se Ag 
Se     1 -0.3925025421379 -0.2981363928132 -0.4371044543736 1.0
Se     1  0.0446029122357  0.2981383928132  0.4371064543736 1.0
Se     1  0.3764174489042  0.2979820016798  0.1020933909055 1.0
Se     1  0.2743250579987 -0.2979800016798 -0.1020913909055 1.0
Se     1 -0.0549810305516 -0.2979254588699  0.2298875472122 1.0
Se     1 -0.2848675777638  0.2979274588699 -0.2298855472122 1.0
Ag     2  0.4233123880647 -0.3163517357327  0.1797888193904 1.0
Ag     2  0.2435245686743  0.3163537357327 -0.1797868193904 1.0
Ag     2  0.1609889147025 -0.0003089123422  0.1683086294630 1.0
Ag     2 -0.0073187147605  0.0003109123422 -0.1683066294630 1.0
Ag     2 -0.4304781647698  0.3170496263927  0.4875354438014 1.0
Ag     2  0.0819873914288 -0.3170476263927 -0.4875334438014 1.0
Ag     2  0.3333078574729 -0.0034789615391  0.5000825178980 1.0
Ag     2 -0.1667736604251  0.0034809615391 -0.5000805178980 1.0
Ag     2 -0.2486790247455 -0.3162141420543 -0.1532746166888 1.0
Ag     2 -0.0954034080567  0.3162161420543  0.1532766166888 1.0
Ag     2 -0.3402023616405  0.0020035345887  0.1659816929897 1.0
Ag     2  0.4938169453698 -0.0020015345887 -0.1659796929897 1.0
END
