TITL 6Ag2Se-200725-005043-fbf34b 0.0844 386.908710 -6.91987523E+004 0 0 18 (P32) n - 1
REM
REM Run started: Sat, 25 Jul 2020 07:39:20 +0100 in /scratch/scratch/uccabz1/launch_tmp/launcher_2020-07-24-23-50-41-129640
REM CASTEP 19.11| from code version Version unavailable
REM Functional Perdew Burke Ernzerhof Relativity Koelling-Harmon Dispersion off
REM Cut-off 300.0000 eV Grid scale 1.7500 Gmax 15.5288 1/A FBSC none
REM MP grid 2 3 3 Offset 0.000 0.000 0.000 No. kpts 5 Spacing 0.07
REM Total runtime: 27230.7 s
REM Overall efficiency: 98.3333 %
REM
REM 6Ag2Se.cell (be4689b4cac7b37e3e738b5494392318)
REM
REM compiler GCC version 4.9.2
REM options -cpp -iprefix /scratch/UCL/applications/gcc/4.9.2/bin/../lib/gcc/x86_64-unknown-linux-gnu/4.9.2/ -mtune=corei7 -march=x86-64 -g -O2
REM COMMAND_LINE
REM seed -1558747476 -2046414086 2099925368 763813495 1534733486 1035355312 118427535 -908712402 1652119009 -1983363192 -1703632821 -1266430785
REM
REM Se 3|2.1|7|7|9|40:41:32(qc=5)
REM Ag 3|2.2|7|7|9|40U:50:41:42(qc=5)
REM 
CELL 1.54180    8.33581    7.32091    7.32091  120.00000   90.00000   90.00000
LATT -1
SFAC Se Ag 
Se     1  0.0587071223528 -0.2797896882375 -0.2622789214435 1.0
Se     1  0.3920404556861  0.0175107667940  0.2797896882375 1.0
Se     1 -0.2746262109805  0.2622789214435 -0.0175107667940 1.0
Se     1 -0.1135181267689  0.0302775511561 -0.6417976578408 1.0
Se     1  0.2198152065644  0.3279247910031 -0.0302775511561 1.0
Se     1 -0.4468514601023  0.6417976578408 -0.3279247910031 1.0
Ag     2 -0.2060126601572 -0.1267514795970 -0.3581778826106 1.0
Ag     2  0.1273206731761 -0.2314264030136  0.1267514795970 1.0
Ag     2  0.4606540065095  0.3581778826106  0.2314264030136 1.0
Ag     2  0.1109041279945 -0.4742482347653  0.3409433374784 1.0
Ag     2  0.4442374613278 -0.1848084277563  0.4742482347653 1.0
Ag     2 -0.2224292053388 -0.3409433374784  0.1848084277563 1.0
Ag     2 -0.0622447564005  0.4011086958146 -0.2127882490541 1.0
Ag     2  0.2710885769328  0.3861030551314 -0.4011086958146 1.0
Ag     2 -0.3955780897339  0.2127882490541 -0.3861030551314 1.0
Ag     2  0.1243473263127  0.0054665607404 -0.4049504118579 1.0
Ag     2 -0.5423193403540 -0.4104169725983 -0.0054665607404 1.0
Ag     2 -0.2089860070206  0.4049504118579  0.4104169725983 1.0
END
