TITL 6Ag2Se-200725-000353-ad8011 0.0433 367.680929 -6.91987441E+004 0 0 18 (P31) n - 1
REM
REM Run started: Sat, 25 Jul 2020 04:05:48 +0100 in /scratch/scratch/uccabz1/launch_tmp/launcher_2020-07-25-00-31-49-866242
REM CASTEP 19.11| from code version Version unavailable
REM Functional Perdew Burke Ernzerhof Relativity Koelling-Harmon Dispersion off
REM Cut-off 300.0000 eV Grid scale 1.7500 Gmax 15.5288 1/A FBSC none
REM MP grid 3 3 2 Offset 0.000 0.000 0.000 No. kpts 5 Spacing 0.07
REM Total runtime: 9480.23 s
REM Overall efficiency: 96.7143 %
REM
REM
REM
REM compiler GCC version 4.9.2
REM options -cpp -iprefix /scratch/UCL/applications/gcc/4.9.2/bin/../lib/gcc/x86_64-unknown-linux-gnu/4.9.2/ -mtune=corei7 -march=x86-64 -g -O2
REM COMMAND_LINE
REM seed -1589477061 2033672876 -1617517165 -1905536797 -1640740706 594139138 -1543976746 302932739 -170114609 -69375323 1048302971 -626352546
REM
REM Se 3|2.1|7|7|9|40:41:32(qc=5)
REM Ag 3|2.2|7|7|9|40U:50:41:42(qc=5)
REM 
CELL 1.54180    6.63213    6.63213    9.65237   90.00000   90.00000  120.00000
LATT -1
SFAC Se Ag 
Se     1  0.0301992465639 -0.3157895358036  0.4242759253621 1.0
Se     1  0.3157895358036  0.3459877823674 -0.2423907413046 1.0
Se     1 -0.3459877823674 -0.0301992465639  0.0909425920288 1.0
Se     1  0.3455317565368  0.3755372379550  0.3027437640334 1.0
Se     1 -0.3755372379550 -0.0300064814182 -0.3639229026333 1.0
Se     1  0.0300064814182 -0.3455317565368 -0.0305895693000 1.0
Ag     2 -0.3486709303527  0.5512050851307 -0.4260275434087 1.0
Ag     2 -0.5512050851307  0.1001229845166 -0.0926942100753 1.0
Ag     2 -0.1001229845166  0.3486709303527  0.2406391232580 1.0
Ag     2 -0.2614649937125 -0.1577814018316  0.3360129998893 1.0
Ag     2  0.1577814018316 -0.1036845918809 -0.3306536667774 1.0
Ag     2  0.1036845918809  0.2614649937125  0.0026796665560 1.0
Ag     2 -0.3876582102092 -0.4936315587840  0.0805355637148 1.0
Ag     2  0.4936315587840  0.1059723485747  0.4138688970481 1.0
Ag     2 -0.1059723485747  0.3876582102092 -0.2527977696186 1.0
Ag     2 -0.2324588018617 -0.1938147574967 -0.1567877095909 1.0
Ag     2  0.1938147574967 -0.0386450443651  0.1765456237424 1.0
Ag     2  0.0386450443651  0.2324588018617 -0.4901210429242 1.0
END
