TITL 6Ag2Se-200724-183810-693ec0 -0.0362 365.359375 -6.91985240E+004 0 0 18 (P21) n - 1
REM
REM Run started: Fri, 24 Jul 2020 23:57:00 +0100 in /scratch/scratch/uccabz1/launch_tmp/launcher_2020-07-24-17-38-09-153346
REM CASTEP 19.11| from code version Version unavailable
REM Functional Perdew Burke Ernzerhof Relativity Koelling-Harmon Dispersion off
REM Cut-off 300.0000 eV Grid scale 1.7500 Gmax 15.5288 1/A FBSC none
REM MP grid 2 3 3 Offset 0.000 0.000 0.000 No. kpts 5 Spacing 0.07
REM Total runtime: 21417 s
REM Overall efficiency: 97.75 %
REM
REM 6Ag2Se.cell (be4689b4cac7b37e3e738b5494392318)
REM
REM compiler GCC version 4.9.2
REM options -cpp -iprefix /scratch/UCL/applications/gcc/4.9.2/bin/../lib/gcc/x86_64-unknown-linux-gnu/4.9.2/ -mtune=corei7 -march=x86-64 -g -O2
REM COMMAND_LINE
REM seed -1511053984 -1759935993 1065046420 1936466767 1316756932 645809110 1369269188 2029389982 -2011805677 -1339721368 -970977105 150635132
REM
REM Se 3|2.1|7|7|9|40:41:32(qc=5)
REM Ag 3|2.2|7|7|9|40U:50:41:42(qc=5)
REM 
CELL 1.54180    7.43348    6.95321    7.44451  108.28146   90.00000   90.00000
LATT -1
SFAC Se Ag 
Se     1  0.4358123978761 -0.2877202846241 -0.0482122783348 1.0
Se     1 -0.0641876021239  0.2877202846241  0.0482122783348 1.0
Se     1 -0.4844251170076 -0.5183729920710  0.4152300875593 1.0
Se     1  0.0155748829924  0.5183729920710 -0.4152300875593 1.0
Se     1 -0.4683658191730  0.0992334848716 -0.3187128467719 1.0
Se     1  0.0316341808270 -0.0992334848716  0.3187128467719 1.0
Ag     2 -0.2816451845611  0.4872829315759 -0.2160221482923 1.0
Ag     2  0.2183548154389 -0.4872829315759  0.2160221482923 1.0
Ag     2 -0.2245526917986 -0.1956396151310 -0.4160102619697 1.0
Ag     2  0.2754473082014  0.1956396151310  0.4160102619697 1.0
Ag     2  0.2711552231524 -0.1887380782924 -0.3813990459569 1.0
Ag     2 -0.2288447768476  0.1887380782924  0.3813990459569 1.0
Ag     2  0.2415922328338  0.0683781186647  0.0068125753454 1.0
Ag     2 -0.2584077671662 -0.0683781186647 -0.0068125753454 1.0
Ag     2 -0.4446855518718  0.3187654629040  0.0531534582894 1.0
Ag     2  0.0553144481282 -0.3187654629040 -0.0531534582894 1.0
Ag     2  0.0137570105498  0.1491259218741 -0.3085292033895 1.0
Ag     2  0.5137570105498 -0.1491259218741  0.3085292033895 1.0
END
