TITL 6Ag2Se-200725-010739-ef4760 -0.0023 377.875589 -6.91968123E+004 0 0 18 (P32) n - 1
REM
REM Run started: Sat, 25 Jul 2020 06:05:48 +0100 in /scratch/scratch/uccabz1/launch_tmp/launcher_2020-07-25-01-32-58-560908
REM CASTEP 19.11| from code version Version unavailable
REM Functional Perdew Burke Ernzerhof Relativity Koelling-Harmon Dispersion off
REM Cut-off 300.0000 eV Grid scale 1.7500 Gmax 15.5288 1/A FBSC none
REM MP grid 4 2 2 Offset 0.000 0.000 0.000 No. kpts 8 Spacing 0.07
REM Total runtime: 14250.2 s
REM Overall efficiency: 98.3333 %
REM
REM
REM
REM compiler GCC version 4.8.5 20150623 (Red Hat 4.8.5-39)
REM options -cpp -mtune=generic -march=x86-64 -g -Og
REM COMMAND_LINE
REM seed -1586967809 -1060295280 1134427318 -1851657422 1423314707 -1513734509 -1358510125 -1471013132 1780625243 -380275094 1614192462 707556357
REM
REM Se 3|2.1|7|7|9|40:41:32(qc=5)
REM Ag 3|2.2|7|7|9|40U:50:41:42(qc=5)
REM 
CELL 1.54180    4.06718   10.35767   10.35767  120.00000   90.00000   90.00000
LATT -1
SFAC Se Ag 
Se     1  0.3008936118352  0.2113916029588  0.1779734041445 1.0
Se     1 -0.3657730548315 -0.0334171988143 -0.2113916029588 1.0
Se     1 -0.0324397214981 -0.1779734041445  0.0334171988143 1.0
Se     1  0.4763738271203  0.0916956282773 -0.4857487772181 1.0
Se     1 -0.1902928395464  0.4225565945046 -0.0916956282773 1.0
Se     1  0.1430404937870  0.4857487772181 -0.4225565945046 1.0
Ag     2  0.1052750843310 -0.0657084527555 -0.4079947976621 1.0
Ag     2  0.4386084176643 -0.3422853449066  0.0657084527555 1.0
Ag     2 -0.2280582490023  0.4079947976621  0.3422853449066 1.0
Ag     2 -0.3507179087363 -0.4132461319222 -0.2295817715740 1.0
Ag     2 -0.0173845754030  0.1836653603482  0.4132461319222 1.0
Ag     2  0.3159487579304  0.2295817715740 -0.1836653603482 1.0
Ag     2 -0.3854504141477 -0.2967794144289 -0.4852552334690 1.0
Ag     2 -0.0521170808144 -0.1884748190401  0.2967794144289 1.0
Ag     2  0.2812162525190  0.4852552334690  0.1884748190401 1.0
Ag     2 -0.1852618670692  0.2383049760359  0.0210084381339 1.0
Ag     2  0.1480714662642 -0.2172955379020 -0.2383049760359 1.0
Ag     2  0.4814047995975 -0.0210084381339  0.2172955379020 1.0
END
