TITL 6Ag2Se-200724-185257-48523f -0.0081 364.807315 -6.91988535E+004 0 0 18 (P21/c) n - 1
REM
REM Run started: Fri, 24 Jul 2020 23:34:13 +0100 in /scratch/scratch/uccabz1/launch_tmp/launcher_2020-07-24-17-52-55-265746
REM CASTEP 19.11| from code version Version unavailable
REM Functional Perdew Burke Ernzerhof Relativity Koelling-Harmon Dispersion off
REM Cut-off 300.0000 eV Grid scale 1.7500 Gmax 15.5288 1/A FBSC none
REM MP grid 4 3 2 Offset 0.000 0.000 0.000 No. kpts 6 Spacing 0.07
REM Total runtime: 17268.5 s
REM Overall efficiency: 97.25 %
REM
REM 6Ag2Se.cell (be4689b4cac7b37e3e738b5494392318)
REM
REM compiler GCC version 4.9.2
REM options -cpp -iprefix /scratch/UCL/applications/gcc/4.9.2/bin/../lib/gcc/x86_64-unknown-linux-gnu/4.9.2/ -mtune=corei7 -march=x86-64 -g -O2
REM COMMAND_LINE
REM seed -1009933658 1817019737 1027971839 -890971154 -688169901 1328122152 -1562986739 -2116565777 1233052029 1270449436 -1070428155 -878423052
REM
REM Se 3|2.1|7|7|9|40:41:32(qc=5)
REM Ag 3|2.2|7|7|9|40U:50:41:42(qc=5)
REM 
CELL 1.54180    4.39631    6.87973   12.12428   95.82969   90.00000   90.00000
LATT -1
SFAC Se Ag 
Se     1 -0.1883873437822 -0.0432048666738 -0.3244779198285 1.0
Se     1  0.3116126562178 -0.4567951333262 -0.1755220801715 1.0
Se     1  0.1883873437822  0.0432048666738  0.3244779198285 1.0
Se     1 -0.3116126562178  0.4567951333262  0.1755220801715 1.0
Se     1 -0.0000000000000 -0.0000000000000 -0.0000000000000 1.0
Se     1 -0.5000000000000  0.5000000000000  0.5000000000000 1.0
Ag     2 -0.2557335027895  0.1445514748974 -0.5052961978023 1.0
Ag     2  0.2442664972105  0.3554485251026  0.0052961978023 1.0
Ag     2  0.2557335027895 -0.1445514748974  0.5052961978023 1.0
Ag     2 -0.2442664972105 -0.3554485251026 -0.0052961978023 1.0
Ag     2  0.2912168196700  0.1990707942511 -0.3269320280203 1.0
Ag     2 -0.2087831803299  0.3009292057489 -0.1730679719797 1.0
Ag     2 -0.2912168196700 -0.1990707942511  0.3269320280203 1.0
Ag     2  0.2087831803299 -0.3009292057489  0.1730679719797 1.0
Ag     2  0.0240019636209  0.4411978323106  0.3630709345517 1.0
Ag     2 -0.4759980363791  0.0588021676894  0.1369290654483 1.0
Ag     2 -0.0240019636209 -0.4411978323106 -0.3630709345517 1.0
Ag     2  0.4759980363791 -0.0588021676894 -0.1369290654483 1.0
END
