TITL 6Ag2Se-200724-184627-c22999 -0.0335 351.966067 -6.91979123E+004 0 0 18 (Cc) n - 1
REM
REM Run started: Fri, 24 Jul 2020 23:53:39 +0100 in /scratch/scratch/uccabz1/launch_tmp/launcher_2020-07-24-17-46-25-560747
REM CASTEP 19.11| from code version Version unavailable
REM Functional Perdew Burke Ernzerhof Relativity Koelling-Harmon Dispersion off
REM Cut-off 300.0000 eV Grid scale 1.7500 Gmax 15.5288 1/A FBSC none
REM MP grid 3 2 2 Offset 0.000 0.000 0.000 No. kpts 5 Spacing 0.07
REM Total runtime: 18850.4 s
REM Overall efficiency: 97.3077 %
REM
REM 6Ag2Se.cell (be4689b4cac7b37e3e738b5494392318)
REM
REM compiler GCC version 4.9.2
REM options -cpp -iprefix /scratch/UCL/applications/gcc/4.9.2/bin/../lib/gcc/x86_64-unknown-linux-gnu/4.9.2/ -mtune=corei7 -march=x86-64 -g -O2
REM COMMAND_LINE
REM seed 156331546 -1059641494 -1820822451 986156224 1857168843 -1872642957 -1881534215 987334018 19274684 -1483420103 968889449 -176226925
REM
REM Se 3|2.1|7|7|9|40:41:32(qc=5)
REM Ag 3|2.2|7|7|9|40U:50:41:42(qc=5)
REM 
CELL 1.54180    6.19707    7.84611    7.84611   81.26053   74.19924   74.19924
LATT -1
SFAC Se Ag 
Se     1  0.1222178619925  0.2940655031273  0.5359483502653 1.0
Se     1 -0.3777821380075  0.5359483502653  0.2940655031273 1.0
Se     1 -0.2261439495633 -0.2876119730146 -0.2862374275382 1.0
Se     1  0.2738560504367 -0.2862374275382 -0.2876119730146 1.0
Se     1  0.3062676082480  0.2646020639782 -0.0666861460092 1.0
Se     1 -0.1937323917520 -0.0666861460092  0.2646020639782 1.0
Ag     2  0.3327108533253 -0.1258845045505  0.3111947973473 1.0
Ag     2 -0.1672891466747  0.3111947973473 -0.1258845045505 1.0
Ag     2  0.4392249449575 -0.3858754423888  0.0118960971951 1.0
Ag     2 -0.0607750550425  0.0118960971951 -0.3858754423888 1.0
Ag     2 -0.0376720742055 -0.4002874035820  0.0082279647249 1.0
Ag     2  0.4623279257945  0.0082279647249 -0.4002874035820 1.0
Ag     2  0.1351891767999 -0.0372364223167 -0.0422904047234 1.0
Ag     2 -0.3648108232001 -0.0422904047234 -0.0372364223167 1.0
Ag     2 -0.5080505389672  0.2605471012895  0.2097105046214 1.0
Ag     2 -0.0080505389672  0.2097105046214  0.2605471012895 1.0
Ag     2 -0.4307682825873  0.3496383466573 -0.3893991050828 1.0
Ag     2  0.0692317174127 -0.3893991050828  0.3496383466573 1.0
END
