TITL 6Ag2Se-200725-005019-6c3008 -0.0374 373.956382 -6.91980314E+004 0 0 18 (C2) n - 1
REM
REM Run started: Sat, 25 Jul 2020 08:07:49 +0100 in /scratch/scratch/uccabz1/launch_tmp/launcher_2020-07-25-02-18-46-363667
REM CASTEP 19.11| from code version Version unavailable
REM Functional Perdew Burke Ernzerhof Relativity Koelling-Harmon Dispersion off
REM Cut-off 300.0000 eV Grid scale 1.7500 Gmax 15.5288 1/A FBSC none
REM MP grid 3 3 2 Offset 0.000 0.000 0.000 No. kpts 9 Spacing 0.07
REM Total runtime: 19521.3 s
REM Overall efficiency: 79.6 %
REM
REM
REM
REM compiler GCC version 4.9.2
REM options -cpp -iprefix /scratch/UCL/applications/gcc/4.9.2/bin/../lib/gcc/x86_64-unknown-linux-gnu/4.9.2/ -mtune=corei7 -march=x86-64 -g -O2
REM COMMAND_LINE
REM seed -2073807768 -661606081 -1182176963 489346049 2008663294 -1011406569 1008386446 190064587 -1759353845 1134393486 1099580266 -1441550177
REM
REM Se 3|2.1|7|7|9|40:41:32(qc=5)
REM Ag 3|2.2|7|7|9|40U:50:41:42(qc=5)
REM 
CELL 1.54180    6.44229    6.45789    9.58215   94.81771  109.64316   90.00000
LATT -1
SFAC Se Ag 
Se     1  0.2896399256925  0.3428589643620  0.0783162609300 1.0
Se     1  0.2113236647626 -0.3428589643620 -0.0783162609300 1.0
Se     1 -0.3999457641872  0.4530470970187 -0.3472833152919 1.0
Se     1 -0.0526624488954 -0.4530470970187  0.3472833152919 1.0
Se     1  0.1409398723143  0.0525812366377 -0.3096391289194 1.0
Se     1  0.4505790012337 -0.0525812366377  0.3096391289194 1.0
Ag     2  0.0198826968268 -0.1448511595788  0.1036801419572 1.0
Ag     2 -0.0837974451304  0.1448511595788 -0.1036801419572 1.0
Ag     2 -0.4877607139947 -0.4764192176513  0.3607704930302 1.0
Ag     2  0.1514687929752  0.4764192176513 -0.3607704930302 1.0
Ag     2 -0.3015675017380  0.1311211208865  0.1408131823179 1.0
Ag     2 -0.4423806840559 -0.1311211208865 -0.1408131823180 1.0
Ag     2 -0.1992619275121  0.1814829045980  0.4707799046304 1.0
Ag     2  0.3299581678575 -0.1814829045980 -0.4707799046304 1.0
Ag     2  0.1553543486266  0.2117995755048  0.3289272622536 1.0
Ag     2 -0.1735729136270 -0.2117995755048 -0.3289272622536 1.0
Ag     2  0.5170463503836  0.3199493374760 -0.1200842280845 1.0
Ag     2 -0.3628694215319 -0.3199493374760  0.1200842280845 1.0
END
