TITL 6Ag2Se-200724-190718-686594 0.0016 374.904287 -6.91977382E+004 0 0 18 (P21) n - 1
REM
REM Run started: Fri, 24 Jul 2020 21:35:42 +0100 in /scratch/scratch/uccabz1/launch_tmp/launcher_2020-07-24-18-07-16-027267
REM CASTEP 19.11| from code version Version unavailable
REM Functional Perdew Burke Ernzerhof Relativity Koelling-Harmon Dispersion off
REM Cut-off 300.0000 eV Grid scale 1.7500 Gmax 15.5288 1/A FBSC none
REM MP grid 3 2 2 Offset 0.000 0.000 0.000 No. kpts 3 Spacing 0.07
REM Total runtime: 8960.97 s
REM Overall efficiency: 79.9167 %
REM
REM 6Ag2Se.cell (be4689b4cac7b37e3e738b5494392318)
REM
REM compiler GCC version 4.9.2
REM options -cpp -iprefix /scratch/UCL/applications/gcc/4.9.2/bin/../lib/gcc/x86_64-unknown-linux-gnu/4.9.2/ -mtune=corei7 -march=x86-64 -g -O2
REM COMMAND_LINE
REM seed 1578018569 1906907785 2110439605 -1580733143 -1103515574 59660708 2076086027 680987745 1021748277 19009168 -1104439337 668573109
REM
REM Se 3|2.1|7|7|9|40:41:32(qc=5)
REM Ag 3|2.2|7|7|9|40U:50:41:42(qc=5)
REM 
CELL 1.54180    5.20637    7.95268    9.36544   90.00000   90.00000  104.80173
LATT -1
SFAC Se Ag 
Se     1 -0.4788606356959  0.1662742401508  0.0703846465057 1.0
Se     1  0.4788606356959 -0.1662742401508 -0.4296153534943 1.0
Se     1  0.3899413154822 -0.3888181117838  0.2229734350167 1.0
Se     1 -0.3899413154822  0.3888181117838 -0.2770265649833 1.0
Se     1 -0.0495386905815 -0.0193380228946 -0.1133860747829 1.0
Se     1  0.0495386905815  0.0193380228946  0.3866139252171 1.0
Ag     2  0.1485011515332 -0.1495074010801  0.1389938375417 1.0
Ag     2 -0.1485011515332  0.1495074010801 -0.3610061624583 1.0
Ag     2  0.0294691151929  0.1968505718848  0.1179622286446 1.0
Ag     2 -0.0294691151929 -0.1968505718848 -0.3820377713554 1.0
Ag     2  0.4223496190624 -0.1130540657364 -0.1420270611041 1.0
Ag     2 -0.4223496190624  0.1130540657364  0.3579729388959 1.0
Ag     2  0.3561707396482  0.4838643894297 -0.0379920982651 1.0
Ag     2 -0.3561707396482 -0.4838643894297  0.4620079017349 1.0
Ag     2 -0.1724205985734 -0.5048234262610  0.1706597336731 1.0
Ag     2  0.1724205985734  0.5048234262610 -0.3293402663269 1.0
Ag     2 -0.0915695140887 -0.3629408194039 -0.1063864472298 1.0
Ag     2  0.0915695140887  0.3629408194039  0.3936135527702 1.0
END
