TITL 6Ag2Se-200724-220449-700a97 0.0587 360.405292 -6.91984857E+004 0 0 18 (R3) n - 1
REM
REM Run started: Fri, 24 Jul 2020 23:59:05 +0100 in /scratch/scratch/uccabz1/launch_tmp/launcher_2020-07-24-21-04-47-262107
REM CASTEP 19.11| from code version Version unavailable
REM Functional Perdew Burke Ernzerhof Relativity Koelling-Harmon Dispersion off
REM Cut-off 300.0000 eV Grid scale 1.7500 Gmax 15.5288 1/A FBSC none
REM MP grid 3 3 3 Offset 0.000 0.000 0.000 No. kpts 6 Spacing 0.07
REM Total runtime: 7131.38 s
REM Overall efficiency: 97.1429 %
REM
REM 6Ag2Se.cell (be4689b4cac7b37e3e738b5494392318)
REM
REM compiler GCC version 4.9.2
REM options -cpp -iprefix /scratch/UCL/applications/gcc/4.9.2/bin/../lib/gcc/x86_64-unknown-linux-gnu/4.9.2/ -mtune=corei7 -march=x86-64 -g -O2
REM COMMAND_LINE
REM seed -1897508434 109005817 -1796672430 1062216705 1524991425 100793265 990074940 -1621114096 269959525 -997620283 -11962221 740820334
REM
REM Se 3|2.1|7|7|9|40:41:32(qc=5)
REM Ag 3|2.2|7|7|9|40U:50:41:42(qc=5)
REM 
CELL 1.54180    7.31793    7.92583    7.92583  110.97247  107.92471  107.92471
LATT -1
SFAC Se Ag 
Se     1  0.4645059490504  0.1412094949143  0.3592494499376 1.0
Se     1  0.3232964541361  0.2180399550233 -0.1412094949143 1.0
Se     1  0.1052564991128 -0.3592494499376 -0.2180399550233 1.0
Se     1 -0.1675333900376 -0.1033231496799  0.3192709865574 1.0
Se     1 -0.0642102403577  0.4225941362373  0.1033231496799 1.0
Se     1  0.5131956234050 -0.3192709865574 -0.4225941362373 1.0
Ag     2 -0.4132093219461  0.0571522209825 -0.2117793634805 1.0
Ag     2 -0.4703615429286 -0.2689315844630 -0.0571522209825 1.0
Ag     2 -0.2014299584656  0.2117793634805  0.2689315844630 1.0
Ag     2  0.1947093013860  0.2579173706642  0.1643147769703 1.0
Ag     2 -0.0632080692783 -0.0936025936940 -0.2579173706642 1.0
Ag     2  0.0303945244157 -0.1643147769703  0.0936025936940 1.0
Ag     2  0.3664974803111 -0.2717260433495  0.2360597150354 1.0
Ag     2 -0.3617764763394 -0.4922142416151  0.2717260433495 1.0
Ag     2  0.1304377652757 -0.2360597150354  0.4922142416151 1.0
Ag     2  0.2391105750192  0.3134772567145 -0.4469964339173 1.0
Ag     2 -0.0743666816953  0.2395263093682 -0.3134772567145 1.0
Ag     2 -0.3138929910635  0.4469964339173 -0.2395263093682 1.0
END
