TITL 6Ag2Se-200725-004229-1b9c87 -0.0189 355.095718 -6.91973257E+004 0 0 18 (C2) n - 1
REM
REM Run started: Sat, 25 Jul 2020 05:23:48 +0100 in /scratch/scratch/uccabz1/launch_tmp/launcher_2020-07-24-23-42-26-787163
REM CASTEP 19.11| from code version Version unavailable
REM Functional Perdew Burke Ernzerhof Relativity Koelling-Harmon Dispersion off
REM Cut-off 300.0000 eV Grid scale 1.7500 Gmax 15.5288 1/A FBSC none
REM MP grid 3 3 3 Offset 0.000 0.000 0.000 No. kpts 10 Spacing 0.07
REM Total runtime: 17005.4 s
REM Overall efficiency: 97.25 %
REM
REM 6Ag2Se.cell (be4689b4cac7b37e3e738b5494392318)
REM
REM compiler GCC version 4.9.2
REM options -cpp -iprefix /scratch/UCL/applications/gcc/4.9.2/bin/../lib/gcc/x86_64-unknown-linux-gnu/4.9.2/ -mtune=corei7 -march=x86-64 -g -O2
REM COMMAND_LINE
REM seed -295300653 1323224968 2026064774 237327213 -570302827 314693175 -61113456 -1366731272 1358340136 -1181335104 -356014892 1338294648
REM
REM Se 3|2.1|7|7|9|40:41:32(qc=5)
REM Ag 3|2.2|7|7|9|40U:50:41:42(qc=5)
REM 
CELL 1.54180    6.62421    7.93407    8.42706  116.64744  111.49267   93.24535
LATT -1
SFAC Se Ag 
Se     1 -0.2147491028660 -0.4151480383630  0.0017692570106 1.0
Se     1  0.2165183598766  0.4169172953736  0.0017692570106 1.0
Se     1  0.3301629922929  0.5150168414126  0.4856948723263 1.0
Se     1  0.1555318800335 -0.0293219690862  0.4856948723263 1.0
Se     1  0.2314575847510 -0.0772135962324  0.0896818977848 1.0
Se     1 -0.1417756869661  0.1668954940173  0.0896818977848 1.0
Ag     2 -0.4906300523866  0.2121062590783 -0.5171834567855 1.0
Ag     2 -0.0265534043989  0.2707102841362 -0.5171834567855 1.0
Ag     2  0.4817623519161 -0.2406015563328  0.3655138956457 1.0
Ag     2 -0.1162484562704 -0.3938845480215  0.3655138956457 1.0
Ag     2  0.4973976101219  0.2432234172816 -0.1727123614683 1.0
Ag     2  0.3298900284098 -0.4159357787499 -0.1727123614683 1.0
Ag     2 -0.4800140281949  0.2779630196312  0.1897077600395 1.0
Ag     2 -0.3302782117656 -0.0882552595917  0.1897077600395 1.0
Ag     2  0.1762628340848 -0.0790377776984 -0.2257589288462 1.0
Ag     2 -0.4020217629310 -0.1467211511479 -0.2257589288462 1.0
Ag     2 -0.1581181370732  0.1072866996277 -0.2992567357069 1.0
Ag     2 -0.1411385986337 -0.4065434353346 -0.2992567357069 1.0
END
