TITL 6Ag2Se-200724-185413-f0c77c 0.0476 372.137672 -6.91982999E+004 0 0 18 (P32) n - 1
REM
REM Run started: Sat, 25 Jul 2020 03:01:25 +0100 in /scratch/scratch/uccabz1/launch_tmp/launcher_2020-07-24-17-54-12-168849
REM CASTEP 19.11| from code version Version unavailable
REM Functional Perdew Burke Ernzerhof Relativity Koelling-Harmon Dispersion off
REM Cut-off 300.0000 eV Grid scale 1.7500 Gmax 15.5288 1/A FBSC none
REM MP grid 2 3 3 Offset 0.000 0.000 0.000 No. kpts 5 Spacing 0.07
REM Total runtime: 30337.6 s
REM Overall efficiency: 98.4286 %
REM
REM 6Ag2Se.cell (be4689b4cac7b37e3e738b5494392318)
REM
REM compiler GCC version 4.9.2
REM options -cpp -iprefix /scratch/UCL/applications/gcc/4.9.2/bin/../lib/gcc/x86_64-unknown-linux-gnu/4.9.2/ -mtune=corei7 -march=x86-64 -g -O2
REM COMMAND_LINE
REM seed 1257055576 256712911 4565444 -991598074 831840876 1856695005 -929830685 -602977009 1108302950 -2105731551 778726274 -1016551754
REM
REM Se 3|2.1|7|7|9|40:41:32(qc=5)
REM Ag 3|2.2|7|7|9|40U:50:41:42(qc=5)
REM 
CELL 1.54180    7.97041    7.34254    7.34254  120.00000   90.00000   90.00000
LATT -1
SFAC Se Ag 
Se     1 -0.3605117165551  0.3556330811491  0.3748573874283 1.0
Se     1  0.3061549501116 -0.3748573874283 -0.0192243062792 1.0
Se     1 -0.0271783832217  0.0192243062792 -0.3556330811491 1.0
Se     1 -0.4767468976824 -0.1149292962565 -0.3019613322517 1.0
Se     1  0.1899197689843  0.3019613322517  0.1870320359953 1.0
Se     1 -0.1434135643490 -0.1870320359953  0.1149292962565 1.0
Ag     2 -0.3699396287159 -0.4090735304797  0.1832418231881 1.0
Ag     2  0.2967270379508 -0.1832418231881  0.4076846463322 1.0
Ag     2 -0.0366062953825 -0.4076846463322  0.4090735304797 1.0
Ag     2  0.1050734820966 -0.1403306470758 -0.1336353901613 1.0
Ag     2 -0.2282598512367  0.1336353901613 -0.0066952569145 1.0
Ag     2  0.4384068154300  0.0066952569145  0.1403306470758 1.0
Ag     2 -0.0134251414228  0.4288791920950 -0.0512653242493 1.0
Ag     2 -0.3467584747561  0.0512653242493  0.4801445163443 1.0
Ag     2  0.3199081919105 -0.4801445163443 -0.4288791920950 1.0
Ag     2  0.4319841356128  0.2628055562561 -0.1531949118375 1.0
Ag     2  0.0986508022795  0.1531949118375  0.4160004680936 1.0
Ag     2 -0.2346825310539 -0.4160004680936 -0.2628055562561 1.0
END
