TITL 6Ag2Se-200724-112402-009c66 0.0161 365.528978 -6.91975374E+004 0 0 18 (P21/m) n - 1
REM
REM Run started: Fri, 24 Jul 2020 14:10:04 +0100 in /scratch/scratch/uccabz1/launch_tmp/launcher_2020-07-24-11-57-52-006715
REM CASTEP 19.11| from code version Version unavailable
REM Functional Perdew Burke Ernzerhof Relativity Koelling-Harmon Dispersion off
REM Cut-off 300.0000 eV Grid scale 1.7500 Gmax 15.5288 1/A FBSC none
REM MP grid 4 2 2 Offset 0.000 0.000 0.000 No. kpts 4 Spacing 0.07
REM Total runtime: 4447.66 s
REM Overall efficiency: 96.5 %
REM
REM
REM
REM compiler GCC version 4.8.5 20150623 (Red Hat 4.8.5-39)
REM options -cpp -mtune=generic -march=x86-64 -g -Og
REM COMMAND_LINE
REM seed 1300282604 -928209215 298207557 1882257721 -1315723749 -1105884798 -309526475 -1352569819 2012569226 432256974 -2079352853 -519024021
REM
REM Se 3|2.1|7|7|9|40:41:32(qc=5)
REM Ag 3|2.2|7|7|9|40U:50:41:42(qc=5)
REM 
CELL 1.54180    4.16121    9.16280    9.93527  105.21936   90.00000   90.00000
LATT -1
SFAC Se Ag 
Se     1 -0.2690040000000  0.2958054457268  0.1022117705718 1.0
Se     1  0.2309960000000 -0.2958054457268 -0.1022117705718 1.0
Se     1  0.2309960000000 -0.0038410805045  0.1518096266592 1.0
Se     1 -0.2690040000000  0.0038410805045 -0.1518096266592 1.0
Se     1 -0.2690040000000 -0.1884397559894  0.4502678992280 1.0
Se     1  0.2309960000000  0.1884397559894 -0.4502678992280 1.0
Ag     2  0.2309960000000  0.2954366578726  0.2985719775215 1.0
Ag     2 -0.2690040000000 -0.2954366578726 -0.2985719775215 1.0
Ag     2  0.2309960000000 -0.3863516234508  0.4934611212955 1.0
Ag     2 -0.2690040000000  0.3863516234508 -0.4934611212955 1.0
Ag     2 -0.2690040000000  0.0523584117312  0.3175312212247 1.0
Ag     2  0.2309960000000 -0.0523584117312 -0.3175312212247 1.0
Ag     2  0.2309960000000 -0.2531600782425  0.2329867979914 1.0
Ag     2 -0.2690040000000  0.2531600782425 -0.2329867979914 1.0
Ag     2 -0.2690040000000 -0.3955635604672  0.0127314249425 1.0
Ag     2  0.2309960000000  0.3955635604672 -0.0127314249425 1.0
Ag     2  0.2309960000000  0.4557893050278 -0.2840578598467 1.0
Ag     2 -0.2690040000000 -0.4557893050278  0.2840578598467 1.0
END
