TITL 6Ag2Se-200724-215438-aa6468 0.0031 344.186136 -6.91980571E+004 0 0 18 (P32) n - 1
REM
REM Run started: Fri, 24 Jul 2020 23:16:44 +0100 in /scratch/scratch/uccabz1/launch_tmp/launcher_2020-07-24-20-54-36-714860
REM CASTEP 19.11| from code version Version unavailable
REM Functional Perdew Burke Ernzerhof Relativity Koelling-Harmon Dispersion off
REM Cut-off 300.0000 eV Grid scale 1.7500 Gmax 15.5288 1/A FBSC none
REM MP grid 4 4 1 Offset 0.000 0.000 0.000 No. kpts 8 Spacing 0.07
REM Total runtime: 5694.05 s
REM Overall efficiency: 97.8 %
REM
REM 6Ag2Se.cell (be4689b4cac7b37e3e738b5494392318)
REM
REM compiler GCC version 4.9.2
REM options -cpp -iprefix /scratch/UCL/applications/gcc/4.9.2/bin/../lib/gcc/x86_64-unknown-linux-gnu/4.9.2/ -mtune=corei7 -march=x86-64 -g -O2
REM COMMAND_LINE
REM seed 335094959 38418355 262760945 -1248420138 -2085247432 -1232485239 1947612903 -557723659 -728417694 359817593 1977137491 -252528755
REM
REM Se 3|2.1|7|7|9|40:41:32(qc=5)
REM Ag 3|2.2|7|7|9|40U:50:41:42(qc=5)
REM 
CELL 1.54180    4.74395    4.74395   17.65969   90.00000   90.00000  120.00000
LATT -1
SFAC Se Ag 
Se     1 -0.0486370905291  0.0184005536225  0.3273936787014 1.0
Se     1 -0.0184005536225 -0.0670376441516 -0.0059396546319 1.0
Se     1  0.0670376441516  0.0486370905291 -0.3392729879653 1.0
Se     1 -0.2533920711190  0.4182937517145  0.4954262508391 1.0
Se     1 -0.4182937517145  0.3283141771665  0.1620929175057 1.0
Se     1 -0.3283141771665  0.2533920711190 -0.1712404158276 1.0
Ag     2  0.3302994931141 -0.4047559251499 -0.0767095267892 1.0
Ag     2  0.4047559251499 -0.2649445817360 -0.4100428601226 1.0
Ag     2  0.2649445817360 -0.3302994931141  0.2566238065441 1.0
Ag     2  0.3586635370727 -0.3756605737847 -0.2437080805022 1.0
Ag     2  0.3756605737847 -0.2656758891426  0.4229585861645 1.0
Ag     2  0.2656758891426 -0.3586635370727  0.0896252528312 1.0
Ag     2 -0.3815336792156  0.3502921728751  0.3319147003032 1.0
Ag     2 -0.3502921728751  0.2681741479093 -0.0014186330301 1.0
Ag     2 -0.2681741479093  0.3815336792156 -0.3347519663634 1.0
Ag     2 -0.0801450959910 -0.0121512297407  0.1633036441143 1.0
Ag     2  0.0121512297407 -0.0679938662503 -0.1700296892190 1.0
Ag     2  0.0679938662503  0.0801450959910  0.4966369774477 1.0
END
