TITL 6Ag2Se-200724-192039-4253d3 -0.0049 375.375599 -6.91988124E+004 0 0 18 (P31) n - 1
REM
REM Run started: Sat, 25 Jul 2020 00:11:53 +0100 in /scratch/scratch/uccabz1/launch_tmp/launcher_2020-07-24-18-20-37-761141
REM CASTEP 19.11| from code version Version unavailable
REM Functional Perdew Burke Ernzerhof Relativity Koelling-Harmon Dispersion off
REM Cut-off 300.0000 eV Grid scale 1.7500 Gmax 15.5288 1/A FBSC none
REM MP grid 3 3 2 Offset 0.000 0.000 0.000 No. kpts 5 Spacing 0.07
REM Total runtime: 17586.5 s
REM Overall efficiency: 96.7273 %
REM
REM 6Ag2Se.cell (be4689b4cac7b37e3e738b5494392318)
REM
REM compiler GCC version 4.9.2
REM options -cpp -iprefix /scratch/UCL/applications/gcc/4.9.2/bin/../lib/gcc/x86_64-unknown-linux-gnu/4.9.2/ -mtune=corei7 -march=x86-64 -g -O2
REM COMMAND_LINE
REM seed -881490041 -1649439959 876086153 -194026144 447339333 1955637848 1113168243 -246855213 1211858490 978114539 966842760 1390022438
REM
REM Se 3|2.1|7|7|9|40:41:32(qc=5)
REM Ag 3|2.2|7|7|9|40U:50:41:42(qc=5)
REM 
CELL 1.54180    7.04625    7.04625    8.73010   90.00000   90.00000  120.00000
LATT -1
SFAC Se Ag 
Se     1 -0.3731080249694 -0.0754244079232  0.4764257113907 1.0
Se     1  0.0754244079232 -0.2976836170462 -0.1902409552759 1.0
Se     1  0.2976836170462  0.3731080249694  0.1430923780574 1.0
Se     1 -0.0286177680194 -0.3360411109249  0.2773316475192 1.0
Se     1  0.3360411109249  0.3074233429055 -0.3893350191474 1.0
Se     1 -0.3074233429055  0.0286177680194 -0.0560016858141 1.0
Ag     2  0.2667952723313  0.0686677466894  0.3563282168983 1.0
Ag     2 -0.0686677466894  0.1981275256420 -0.3103384497684 1.0
Ag     2 -0.1981275256420 -0.2667952723313  0.0229948835650 1.0
Ag     2  0.3452684446014 -0.2133019757324  0.1251077021053 1.0
Ag     2  0.2133019757324 -0.4414295796661  0.4584410354387 1.0
Ag     2  0.4414295796661 -0.3452684446014 -0.2082256312280 1.0
Ag     2  0.2128470602276  0.1131073930736 -0.0927800703436 1.0
Ag     2 -0.1131073930736  0.0997396671540  0.2405532629897 1.0
Ag     2 -0.0997396671540 -0.2128470602276 -0.4261134036769 1.0
Ag     2 -0.3341679396208  0.3884473210646 -0.2061637742367 1.0
Ag     2 -0.3884473210646  0.2773847393146  0.1271695590966 1.0
Ag     2 -0.2773847393146  0.3341679396208  0.4605028924300 1.0
END
