TITL 6Ag2Se-200724-100843-2e9a17 0.0610 391.905718 -6.91991323E+004 0 0 18 (R3) n - 1
REM
REM Run started: Fri, 24 Jul 2020 12:47:56 +0100 in /scratch/scratch/uccabz1/launch_tmp/launcher_2020-07-24-09-08-40-596442
REM CASTEP 19.11| from code version Version unavailable
REM Functional Perdew Burke Ernzerhof Relativity Koelling-Harmon Dispersion off
REM Cut-off 300.0000 eV Grid scale 1.7500 Gmax 15.5288 1/A FBSC none
REM MP grid 3 3 2 Offset 0.000 0.000 0.000 No. kpts 7 Spacing 0.07
REM Total runtime: 10169.3 s
REM Overall efficiency: 78.5 %
REM
REM 6Ag2Se.cell (be4689b4cac7b37e3e738b5494392318)
REM
REM compiler GCC version 4.9.2
REM options -cpp -iprefix /scratch/UCL/applications/gcc/4.9.2/bin/../lib/gcc/x86_64-unknown-linux-gnu/4.9.2/ -mtune=corei7 -march=x86-64 -g -O2
REM COMMAND_LINE
REM seed 1828086496 1376191832 -554998670 -1726213865 2131312117 -1786040415 828813748 -498096760 1892987149 1757365175 1379047371 299090431
REM
REM Se 3|2.1|7|7|9|40:41:32(qc=5)
REM Ag 3|2.2|7|7|9|40U:50:41:42(qc=5)
REM 
CELL 1.54180    7.85613    7.85613    8.62171   62.89635   62.89635   60.00000
LATT -1
SFAC Se Ag 
Se     1 -0.4548590306098  0.2291053885824  0.2385435069533 1.0
Se     1 -0.0127898649259 -0.4548590306098  0.2385435069533 1.0
Se     1  0.2291053885824 -0.0127898649259  0.2385435069533 1.0
Se     1 -0.3294268321102  0.0709236560356 -0.1748192925208 1.0
Se     1  0.4333224685954 -0.3294268321102 -0.1748192925208 1.0
Se     1  0.0709236560356  0.4333224685954 -0.1748192925208 1.0
Ag     2 -0.1915696030238  0.3709389853564  0.1864774519104 1.0
Ag     2 -0.3658468342430 -0.1915696030238  0.1864774519104 1.0
Ag     2  0.3709389853564 -0.3658468342430  0.1864774519104 1.0
Ag     2 -0.2433782669979 -0.3613109076187 -0.4625550928799 1.0
Ag     2  0.0672442674965 -0.2433782669979 -0.4625550928799 1.0
Ag     2 -0.3613109076187  0.0672442674965 -0.4625550928799 1.0
Ag     2  0.0355426418154 -0.1749020919033 -0.1389237648958 1.0
Ag     2  0.2782832149837  0.0355426418154 -0.1389237648958 1.0
Ag     2 -0.1749020919033  0.2782832149837 -0.1389237648958 1.0
Ag     2  0.2086933638778  0.3500659251005  0.5158701914329 1.0
Ag     2 -0.0746294804112  0.2086933638778  0.5158701914329 1.0
Ag     2  0.3500659251005 -0.0746294804112  0.5158701914329 1.0
END
