TITL 6Ag2Se-200724-190538-793289 -0.0272 360.964958 -6.91970111E+004 0 0 18 (P31) n - 1
REM
REM Run started: Fri, 24 Jul 2020 21:04:11 +0100 in /scratch/scratch/uccabz1/launch_tmp/launcher_2020-07-24-18-05-36-308364
REM CASTEP 19.11| from code version Version unavailable
REM Functional Perdew Burke Ernzerhof Relativity Koelling-Harmon Dispersion off
REM Cut-off 300.0000 eV Grid scale 1.7500 Gmax 15.5288 1/A FBSC none
REM MP grid 3 3 2 Offset 0.000 0.000 0.000 No. kpts 5 Spacing 0.07
REM Total runtime: 7333.86 s
REM Overall efficiency: 96.8571 %
REM
REM 6Ag2Se.cell (be4689b4cac7b37e3e738b5494392318)
REM
REM compiler GCC version 4.9.2
REM options -cpp -iprefix /scratch/UCL/applications/gcc/4.9.2/bin/../lib/gcc/x86_64-unknown-linux-gnu/4.9.2/ -mtune=corei7 -march=x86-64 -g -O2
REM COMMAND_LINE
REM seed -486833638 -44149733 632846991 -1447055463 -444370861 1963046378 -1131567465 -445307917 -1895368136 1985305047 -562235620 -1623305111
REM
REM Se 3|2.1|7|7|9|40:41:32(qc=5)
REM Ag 3|2.2|7|7|9|40U:50:41:42(qc=5)
REM 
CELL 1.54180    6.97027    6.97027    8.57897   90.00000   90.00000  120.00000
LATT -1
SFAC Se Ag 
Se     1  0.2427402584820  0.0447428082173  0.2139426450822 1.0
Se     1 -0.1979974502647 -0.2427402584820 -0.1193906882512 1.0
Se     1 -0.0447428082173  0.1979974502647 -0.4527240215845 1.0
Se     1  0.4313842151609  0.3050809662593 -0.3093449436965 1.0
Se     1 -0.1263032489016 -0.4313842151609  0.3573217229702 1.0
Se     1 -0.3050809662593  0.1263032489016  0.0239883896369 1.0
Ag     2  0.2419058717291 -0.0385237121136 -0.1088325203848 1.0
Ag     2 -0.2804295838428 -0.2419058717291 -0.4421658537181 1.0
Ag     2  0.0385237121136  0.2804295838428  0.2245008129485 1.0
Ag     2 -0.1054707041316 -0.5103856568353 -0.2840021830366 1.0
Ag     2 -0.4049149527037  0.1054707041316  0.3826644836300 1.0
Ag     2  0.5103856568353  0.4049149527037  0.0493311502967 1.0
Ag     2  0.0821643132698  0.2685488422352 -0.1142006821504 1.0
Ag     2  0.1863845289654 -0.0821643132698 -0.4475340154838 1.0
Ag     2 -0.2685488422352 -0.1863845289654  0.2191326511829 1.0
Ag     2  0.3769666320240 -0.3119687005532 -0.2437150491472 1.0
Ag     2  0.3110646674228 -0.3769666320240  0.4229516175195 1.0
Ag     2  0.3119687005532 -0.3110646674228  0.0896182841862 1.0
END
