TITL 6Ag2Se-200724-214716-9812e4 -0.0241 364.338615 -6.91982990E+004 0 0 18 (P21) n - 1
REM
REM Run started: Sat, 25 Jul 2020 01:29:43 +0100 in /scratch/scratch/uccabz1/launch_tmp/launcher_2020-07-24-20-47-13-899023
REM CASTEP 19.11| from code version Version unavailable
REM Functional Perdew Burke Ernzerhof Relativity Koelling-Harmon Dispersion off
REM Cut-off 300.0000 eV Grid scale 1.7500 Gmax 15.5288 1/A FBSC none
REM MP grid 4 3 2 Offset 0.000 0.000 0.000 No. kpts 6 Spacing 0.07
REM Total runtime: 13505.6 s
REM Overall efficiency: 97.1818 %
REM
REM 6Ag2Se.cell (be4689b4cac7b37e3e738b5494392318)
REM
REM compiler GCC version 4.9.2
REM options -cpp -iprefix /scratch/UCL/applications/gcc/4.9.2/bin/../lib/gcc/x86_64-unknown-linux-gnu/4.9.2/ -mtune=corei7 -march=x86-64 -g -O2
REM COMMAND_LINE
REM seed -529687702 1690233384 -82211940 -550777075 890981552 -206729695 -877990658 -465801061 331288347 -128516704 1477357724 439043273
REM
REM Se 3|2.1|7|7|9|40:41:32(qc=5)
REM Ag 3|2.2|7|7|9|40U:50:41:42(qc=5)
REM 
CELL 1.54180    4.83697    6.78538   12.05679   90.00000   90.00000  112.96896
LATT -1
SFAC Se Ag 
Se     1 -0.2071742669982 -0.1158884245350 -0.1088610391706 1.0
Se     1  0.2071742669982  0.1158884245350  0.3911389608294 1.0
Se     1 -0.1299465685869  0.3865193609087 -0.2867739873771 1.0
Se     1  0.1299465685869 -0.3865193609087  0.2132260126229 1.0
Se     1 -0.4450008660350 -0.3271039542704 -0.4886817818963 1.0
Se     1  0.4450008660350  0.3271039542704  0.0113182181037 1.0
Ag     2  0.3355399445222  0.2541945750164 -0.3952191074228 1.0
Ag     2 -0.3355399445222 -0.2541945750164  0.1047808925772 1.0
Ag     2  0.1208981117882 -0.2127086923266 -0.4132214860801 1.0
Ag     2 -0.1208981117882  0.2127086923266  0.0867785139199 1.0
Ag     2 -0.4189377687267  0.4648114987905  0.2986469442537 1.0
Ag     2  0.4189377687267 -0.4648114987905 -0.2013530557463 1.0
Ag     2  0.1068434072588 -0.3475875218997 -0.0259742076011 1.0
Ag     2 -0.1068434072588  0.3475875218997  0.4740257923989 1.0
Ag     2  0.3658886151758  0.0750656847866 -0.1736096033328 1.0
Ag     2 -0.3658886151758 -0.0750656847866  0.3263903966672 1.0
Ag     2 -0.2718156582078 -0.0161758888426 -0.3408787313730 1.0
Ag     2  0.2718156582078  0.0161758888426  0.1591212686270 1.0
END
