TITL 6Ag2Se-200724-191335-a1298a -0.0330 391.771122 -6.91977553E+004 0 0 18 (P21/m) n - 1
REM
REM Run started: Fri, 24 Jul 2020 22:14:01 +0100 in /scratch/scratch/uccabz1/launch_tmp/launcher_2020-07-24-18-13-32-765430
REM CASTEP 19.11| from code version Version unavailable
REM Functional Perdew Burke Ernzerhof Relativity Koelling-Harmon Dispersion off
REM Cut-off 300.0000 eV Grid scale 1.7500 Gmax 15.5288 1/A FBSC none
REM MP grid 4 2 2 Offset 0.000 0.000 0.000 No. kpts 4 Spacing 0.07
REM Total runtime: 11968.1 s
REM Overall efficiency: 97.5 %
REM
REM 6Ag2Se.cell (be4689b4cac7b37e3e738b5494392318)
REM
REM compiler GCC version 4.9.2
REM options -cpp -iprefix /scratch/UCL/applications/gcc/4.9.2/bin/../lib/gcc/x86_64-unknown-linux-gnu/4.9.2/ -mtune=corei7 -march=x86-64 -g -O2
REM COMMAND_LINE
REM seed 441850421 -222135111 808643915 -153976146 -942940554 2092294943 -858065534 281011362 -1583750187 1672545981 -811631500 -474716463
REM
REM Se 3|2.1|7|7|9|40:41:32(qc=5)
REM Ag 3|2.2|7|7|9|40U:50:41:42(qc=5)
REM 
CELL 1.54180    4.14209    9.00515   10.70177   90.00000   90.00000  101.05442
LATT -1
SFAC Se Ag 
Se     1  0.1322811718427  0.3007281752352 -0.0654160908611 1.0
Se     1 -0.1322811718427 -0.3007281752352  0.4345839091389 1.0
Se     1 -0.1322811718427 -0.3007281752352  0.0654160908611 1.0
Se     1  0.1322811718427  0.3007281752352 -0.4345839091389 1.0
Se     1  0.3386656518725  0.0738366071343  0.2500000000000 1.0
Se     1 -0.3386656518725 -0.0738366071343 -0.2500000000000 1.0
Ag     2  0.3056781812543 -0.2826110463080 -0.1136856859944 1.0
Ag     2 -0.3056781812543  0.2826110463080  0.3863143140056 1.0
Ag     2 -0.3056781812543  0.2826110463080  0.1136856859944 1.0
Ag     2  0.3056781812543 -0.2826110463080 -0.3863143140056 1.0
Ag     2  0.2602642278932  0.0332483276219 -0.4027865441006 1.0
Ag     2 -0.2602642278932 -0.0332483276219  0.0972134558994 1.0
Ag     2 -0.2602642278932 -0.0332483276219  0.4027865441006 1.0
Ag     2  0.2602642278932  0.0332483276219 -0.0972134558994 1.0
Ag     2  0.2933374075771 -0.4857778684325  0.1181462668599 1.0
Ag     2 -0.2933374075771  0.4857778684325 -0.3818537331401 1.0
Ag     2 -0.2933374075771  0.4857778684325 -0.1181462668599 1.0
Ag     2  0.2933374075771 -0.4857778684325  0.3818537331401 1.0
END
