TITL 6Ag2Se-200724-191026-ac06b6 -0.0054 374.320172 -6.91977864E+004 0 0 18 (R3) n - 1
REM
REM Run started: Fri, 24 Jul 2020 21:40:58 +0100 in /scratch/scratch/uccabz1/launch_tmp/launcher_2020-07-24-18-10-24-460944
REM CASTEP 19.11| from code version Version unavailable
REM Functional Perdew Burke Ernzerhof Relativity Koelling-Harmon Dispersion off
REM Cut-off 300.0000 eV Grid scale 1.7500 Gmax 15.5288 1/A FBSC none
REM MP grid 3 3 3 Offset 0.000 0.000 0.000 No. kpts 6 Spacing 0.07
REM Total runtime: 9328 s
REM Overall efficiency: 84.4545 %
REM
REM 6Ag2Se.cell (be4689b4cac7b37e3e738b5494392318)
REM
REM compiler GCC version 4.9.2
REM options -cpp -iprefix /scratch/UCL/applications/gcc/4.9.2/bin/../lib/gcc/x86_64-unknown-linux-gnu/4.9.2/ -mtune=corei7 -march=x86-64 -g -O2
REM COMMAND_LINE
REM seed -1763722808 1586538708 1208656633 1316236284 -1766621043 -855985745 -1634988105 1979708549 -1394183349 -977075335 -520789636 -1145578450
REM
REM Se 3|2.1|7|7|9|40:41:32(qc=5)
REM Ag 3|2.2|7|7|9|40U:50:41:42(qc=5)
REM 
CELL 1.54180    7.29029    7.29029    7.29029   98.19256   98.19256   98.19256
LATT -1
SFAC Se Ag 
Se     1  0.0533489710181  0.3713425048006 -0.0756633948631 1.0
Se     1 -0.0756633948631  0.0533489710181  0.3713425048006 1.0
Se     1  0.3713425048006 -0.0756633948631  0.0533489710181 1.0
Se     1  0.2368716562239 -0.2944201363729 -0.4586018371925 1.0
Se     1 -0.4586018371925  0.2368716562239 -0.2944201363729 1.0
Se     1 -0.2944201363729 -0.4586018371925  0.2368716562239 1.0
Ag     2  0.3149393763840  0.0931059559336  0.3893469664064 1.0
Ag     2  0.3893469664064  0.3149393763840  0.0931059559336 1.0
Ag     2  0.0931059559336  0.3893469664064  0.3149393763840 1.0
Ag     2 -0.2560230199321  0.1826043793885  0.0597972972716 1.0
Ag     2  0.0597972972716 -0.2560230199321  0.1826043793885 1.0
Ag     2  0.1826043793885  0.0597972972716 -0.2560230199321 1.0
Ag     2  0.3799952668169 -0.4673815282782 -0.2027123649563 1.0
Ag     2 -0.2027123649563  0.3799952668169 -0.4673815282782 1.0
Ag     2 -0.4673815282782 -0.2027123649563  0.3799952668169 1.0
Ag     2 -0.2106709498973 -0.0069044023605 -0.2990630403907 1.0
Ag     2 -0.2990630403907 -0.2106709498973 -0.0069044023605 1.0
Ag     2 -0.0069044023605 -0.2990630403907 -0.2106709498973 1.0
END
