TITL 6Ag2Se-200724-231250-9d5400 0.0158 348.128503 -6.91982328E+004 0 0 18 (P-3) n - 1
REM
REM Run started: Sat, 25 Jul 2020 04:31:41 +0100 in /scratch/scratch/uccabz1/launch_tmp/launcher_2020-07-24-22-12-48-658546
REM CASTEP 19.11| from code version Version unavailable
REM Functional Perdew Burke Ernzerhof Relativity Koelling-Harmon Dispersion off
REM Cut-off 300.0000 eV Grid scale 1.7500 Gmax 15.5288 1/A FBSC none
REM MP grid 3 2 2 Offset 0.000 0.000 0.000 No. kpts 6 Spacing 0.07
REM Total runtime: 19188.2 s
REM Overall efficiency: 96.5 %
REM
REM 6Ag2Se.cell (be4689b4cac7b37e3e738b5494392318)
REM
REM compiler GCC version 4.9.2
REM options -cpp -iprefix /scratch/UCL/applications/gcc/4.9.2/bin/../lib/gcc/x86_64-unknown-linux-gnu/4.9.2/ -mtune=corei7 -march=x86-64 -g -O2
REM COMMAND_LINE
REM seed 1484395934 230632512 -194458964 1927295487 -1184463189 -1500451062 2057598180 67243635 -2142816720 494853634 -1699386787 696306466
REM
REM Se 3|2.1|7|7|9|40:41:32(qc=5)
REM Ag 3|2.2|7|7|9|40U:50:41:42(qc=5)
REM 
CELL 1.54180    4.88901    9.06763    9.06763  120.00000   90.00000   90.00000
LATT -1
SFAC Se Ag 
Se     1 -0.1751332784447  0.4182732748984  0.4906632213712 1.0
Se     1 -0.1751332784447 -0.4906632213712 -0.0723899464728 1.0
Se     1 -0.1751332784447  0.0723899464728 -0.4182732748984 1.0
Se     1  0.3381214583490 -0.1756877705919 -0.2610887631362 1.0
Se     1  0.3381214583490  0.2610887631362  0.0854009925443 1.0
Se     1  0.3381214583490 -0.0854009925443  0.1756877705919 1.0
Ag     2 -0.1634813415350  0.4502278874223  0.2062666220356 1.0
Ag     2 -0.1634813415350 -0.2062666220356  0.2439612653868 1.0
Ag     2 -0.1634813415350 -0.2439612653868 -0.4502278874223 1.0
Ag     2  0.3327130497298  0.5395780891116  0.4227804596310 1.0
Ag     2  0.3327130497298 -0.4227804596310  0.1167976294806 1.0
Ag     2  0.3327130497298 -0.1167976294806 -0.5395780891116 1.0
Ag     2 -0.1586192589903 -0.2133797414405 -0.1122852014721 1.0
Ag     2 -0.1586192589903  0.1122852014721 -0.1010945399684 1.0
Ag     2 -0.1586192589903  0.1010945399684  0.2133797414405 1.0
Ag     2 -0.6657650291088  0.2209195319927 -0.2322922450183 1.0
Ag     2 -0.6657650291088  0.2322922450183  0.4532117770110 1.0
Ag     2 -0.6657650291088 -0.4532117770110 -0.2209195319927 1.0
END
