TITL 6Ag2Se-200724-184626-3a5085 -0.0165 366.164608 -6.91982619E+004 0 0 18 (Fdd2) n - 1
REM
REM Run started: Fri, 24 Jul 2020 22:04:04 +0100 in /scratch/scratch/uccabz1/launch_tmp/launcher_2020-07-24-17-46-24-000208
REM CASTEP 19.11| from code version Version unavailable
REM Functional Perdew Burke Ernzerhof Relativity Koelling-Harmon Dispersion off
REM Cut-off 300.0000 eV Grid scale 1.7500 Gmax 15.5288 1/A FBSC none
REM MP grid 3 3 3 Offset 0.000 0.000 0.000 No. kpts 8 Spacing 0.07
REM Total runtime: 12028.5 s
REM Overall efficiency: 97.5714 %
REM
REM 6Ag2Se.cell (be4689b4cac7b37e3e738b5494392318)
REM
REM compiler GCC version 4.9.2
REM options -cpp -iprefix /scratch/UCL/applications/gcc/4.9.2/bin/../lib/gcc/x86_64-unknown-linux-gnu/4.9.2/ -mtune=corei7 -march=x86-64 -g -O2
REM COMMAND_LINE
REM seed 1541951207 729973225 -539446236 -755915110 1627881053 -1777672800 203526520 1887566269 949168458 781866687 -1092782121 -438743192
REM
REM Se 3|2.1|7|7|9|40:41:32(qc=5)
REM Ag 3|2.2|7|7|9|40U:50:41:42(qc=5)
REM 
CELL 1.54180    7.98772    7.95278    7.77057   75.04174   59.07117   59.85458
LATT -1
SFAC Se Ag 
Se     1  0.2936089581905 -0.4082422224933 -0.2759088547062 1.0
Se     1  0.1146331643028 -0.4082422224933  0.2759090547062 1.0
Se     1  0.2677000034843  0.0917577775067 -0.2240909452938 1.0
Se     1 -0.3594578809910  0.0917577775067  0.2240911452938 1.0
Se     1 -0.0973825171500  0.1947649343001  0.5000001000000 1.0
Se     1 -0.3473825171500 -0.3052350656999  0.0000001000000 1.0
Ag     2  0.2821919279421  0.1964780850115  0.2103320582212 1.0
Ag     2 -0.4786701129537  0.1964780850115 -0.2103318582212 1.0
Ag     2 -0.2574761138367 -0.3035219149885  0.2896681417788 1.0
Ag     2 -0.4390020711748 -0.3035219149885 -0.2896679417788 1.0
Ag     2 -0.3349749948702  0.3607386418850 -0.0569536052956 1.0
Ag     2 -0.0257637470148  0.3607386418850  0.0569538052956 1.0
Ag     2 -0.1419287001658 -0.1392613581150 -0.4430461947044 1.0
Ag     2  0.2811899582808 -0.1392613581150  0.4430463947044 1.0
Ag     2  0.1318643437503 -0.0627167215533  0.1371090062985 1.0
Ag     2 -0.0691477221970 -0.0627167215533 -0.1371088062985 1.0
Ag     2 -0.4810267499512  0.4372832784467  0.3628911937015 1.0
Ag     2  0.0437433715045  0.4372832784467 -0.3628909937015 1.0
END
