TITL 6Ag2Se-200725-093842-04a615 -0.0674 371.428286 -6.91981848E+004 0 0 18 (Pc) n - 1
REM
REM Run started: Sat, 25 Jul 2020 17:17:59 +0100 in /scratch/scratch/uccabz1/launch_tmp/launcher_2020-07-25-13-58-36-274452
REM CASTEP 19.11| from code version Version unavailable
REM Functional Perdew Burke Ernzerhof Relativity Koelling-Harmon Dispersion off
REM Cut-off 300.0000 eV Grid scale 1.7500 Gmax 15.5288 1/A FBSC none
REM MP grid 4 3 1 Offset 0.000 0.000 0.000 No. kpts 6 Spacing 0.07
REM Total runtime: 10723.6 s
REM Overall efficiency: 96.7143 %
REM
REM
REM
REM compiler GCC version 4.9.2
REM options -cpp -iprefix /scratch/UCL/applications/gcc/4.9.2/bin/../lib/gcc/x86_64-unknown-linux-gnu/4.9.2/ -mtune=corei7 -march=x86-64 -g -O2
REM COMMAND_LINE
REM seed -29538600 164698595 -1469383188 -358888896 1092606461 1711786903 -173342255 670808734 811369019 -1770469362 -124625274 -1055366207
REM
REM Se 3|2.1|7|7|9|40:41:32(qc=5)
REM Ag 3|2.2|7|7|9|40U:50:41:42(qc=5)
REM 
CELL 1.54180    4.31858    5.85386   14.69261   90.00000   90.00000   90.33205
LATT -1
SFAC Se Ag 
Se     1 -0.1851756844963 -0.3835839695206 -0.3158997730296 1.0
Se     1 -0.1851756844963  0.1164160304794  0.3158997730296 1.0
Se     1  0.3153891668285  0.0510814499872 -0.2091545519034 1.0
Se     1  0.3153891668285 -0.4489185500128  0.2091545519034 1.0
Se     1 -0.2149538923862 -0.0467168328686  0.0205854802191 1.0
Se     1 -0.2149538923862  0.4532831671314 -0.0205854802191 1.0
Ag     2  0.3131986443334  0.4083135454517 -0.4053595248031 1.0
Ag     2  0.3131986443334 -0.0916864545483  0.4053595248031 1.0
Ag     2  0.2848673558608 -0.0778874716820  0.1118913293750 1.0
Ag     2  0.2848673558608  0.4221125283180 -0.1118913293750 1.0
Ag     2 -0.1883450669281  0.1737271661004  0.5001166346879 1.0
Ag     2 -0.1883450669281 -0.3262728338996 -0.5001166346879 1.0
Ag     2 -0.1858557150523  0.2939821685957  0.1501066909318 1.0
Ag     2 -0.1858557150523 -0.2060178314043 -0.1501066909318 1.0
Ag     2 -0.1851362118368  0.1637902566123 -0.3063687606257 1.0
Ag     2 -0.1851362118368 -0.3362097433877  0.3063687606257 1.0
Ag     2  0.3125564036770  0.4091016873240  0.3966960153939 1.0
Ag     2  0.3125564036770 -0.0908983126760 -0.3966960153939 1.0
END
