TITL 6Ag2Se-200724-221242-b7f096 0.0258 405.903262 -6.91990889E+004 0 0 18 (Pba2) n - 1
REM
REM Run started: Sat, 25 Jul 2020 00:03:25 +0100 in /scratch/scratch/uccabz1/launch_tmp/launcher_2020-07-24-21-12-40-032268
REM CASTEP 19.11| from code version Version unavailable
REM Functional Perdew Burke Ernzerhof Relativity Koelling-Harmon Dispersion off
REM Cut-off 300.0000 eV Grid scale 1.7500 Gmax 15.5288 1/A FBSC none
REM MP grid 4 2 2 Offset 0.000 0.000 0.000 No. kpts 2 Spacing 0.07
REM Total runtime: 7237.72 s
REM Overall efficiency: 81.6429 %
REM
REM 6Ag2Se.cell (be4689b4cac7b37e3e738b5494392318)
REM
REM compiler GCC version 4.9.2
REM options -cpp -iprefix /scratch/UCL/applications/gcc/4.9.2/bin/../lib/gcc/x86_64-unknown-linux-gnu/4.9.2/ -mtune=corei7 -march=x86-64 -g -O2
REM COMMAND_LINE
REM seed 1247532144 -1844895917 1332576861 -756684428 -440008353 889885611 -782395282 -1501616389 -835233658 -2055797433 1942999667 620811319
REM
REM Se 3|2.1|7|7|9|40:41:32(qc=5)
REM Ag 3|2.2|7|7|9|40U:50:41:42(qc=5)
REM 
CELL 1.54180    4.61899    7.28140   12.06870   90.00000   90.00000   90.00000
LATT -1
SFAC Se Ag 
Se     1 -0.4762067940288 -0.0154486286949 -0.1902385366835 1.0
Se     1 -0.4762067940288  0.0154486286949  0.1902385366835 1.0
Se     1 -0.4762067940288  0.4845513713051 -0.3097614633165 1.0
Se     1 -0.4762067940288 -0.4845513713051  0.3097614633165 1.0
Se     1 -0.0206332995780 -0.5000000000000 -0.0000000000000 1.0
Se     1 -0.0206332995780  0.0000000000000  0.5000000000000 1.0
Ag     2 -0.4799960867538 -0.1363535633793  0.3919651855393 1.0
Ag     2 -0.4799960867538  0.1363535633793 -0.3919651855393 1.0
Ag     2 -0.4799960867538  0.3636464366207  0.1080348144607 1.0
Ag     2 -0.4799960867538 -0.3636464366207 -0.1080348144607 1.0
Ag     2  0.0218988458958 -0.3856254254083  0.3976823516780 1.0
Ag     2  0.0218988458958  0.3856254254083 -0.3976823516780 1.0
Ag     2  0.0218988458958  0.1143745745917  0.1023176483220 1.0
Ag     2  0.0218988458958 -0.1143745745917 -0.1023176483220 1.0
Ag     2  0.2765030846757  0.2365917487447  0.3926829782931 1.0
Ag     2  0.2765030846757 -0.2365917487447 -0.3926829782931 1.0
Ag     2  0.2765030846757 -0.2634082512553  0.1073170217069 1.0
Ag     2  0.2765030846757  0.2634082512553 -0.1073170217069 1.0
END
