TITL 6Ag2Se-200724-114036-b6333c -0.0080 381.743285 -6.91978737E+004 0 0 18 (P32) n - 1
REM
REM Run started: Fri, 24 Jul 2020 14:18:16 +0100 in /scratch/scratch/uccabz1/launch_tmp/launcher_2020-07-24-10-40-33-293709
REM CASTEP 19.11| from code version Version unavailable
REM Functional Perdew Burke Ernzerhof Relativity Koelling-Harmon Dispersion off
REM Cut-off 300.0000 eV Grid scale 1.7500 Gmax 15.5288 1/A FBSC none
REM MP grid 3 3 2 Offset 0.000 0.000 0.000 No. kpts 5 Spacing 0.07
REM Total runtime: 9745.88 s
REM Overall efficiency: 97.25 %
REM
REM 6Ag2Se.cell (be4689b4cac7b37e3e738b5494392318)
REM
REM compiler GCC version 4.9.2
REM options -cpp -iprefix /scratch/UCL/applications/gcc/4.9.2/bin/../lib/gcc/x86_64-unknown-linux-gnu/4.9.2/ -mtune=corei7 -march=x86-64 -g -O2
REM COMMAND_LINE
REM seed 616524906 -666274190 -1331098794 2084082002 2057108227 -579345885 -497282967 1203081564 -952719884 -1519101618 1311951344 1055134627
REM
REM Se 3|2.1|7|7|9|40:41:32(qc=5)
REM Ag 3|2.2|7|7|9|40U:50:41:42(qc=5)
REM 
CELL 1.54180    5.67428    5.67428   13.69048   90.00000   90.00000  120.00000
LATT -1
SFAC Se Ag 
Se     1  0.3225309982089 -0.3678825925671 -0.2731612894942 1.0
Se     1  0.3678825925671 -0.3095864092240  0.3935053771725 1.0
Se     1  0.3095864092240 -0.3225309982089  0.0601720438391 1.0
Se     1 -0.3381369956025  0.3055806969475 -0.4364914540562 1.0
Se     1 -0.3055806969475  0.3562823074500  0.2301752126105 1.0
Se     1 -0.3562823074500  0.3381369956025 -0.1031581207228 1.0
Ag     2  0.3769722045531  0.2178311147385  0.4024987164895 1.0
Ag     2 -0.2178311147385  0.1591410898146  0.0691653831561 1.0
Ag     2 -0.1591410898146 -0.3769722045531 -0.2641679501772 1.0
Ag     2  0.1537809063924  0.3067755387589 -0.0931110548219 1.0
Ag     2 -0.3067755387589 -0.1529946323664 -0.4264443881552 1.0
Ag     2  0.1529946323664 -0.1537809063924  0.2402222785115 1.0
Ag     2  0.2912272282155  0.1381032108570 -0.2813230049282 1.0
Ag     2 -0.1381032108570  0.1531240173585  0.3853436617385 1.0
Ag     2 -0.1531240173585 -0.2912272282155  0.0520103284052 1.0
Ag     2 -0.3608738268679 -0.1417937800374 -0.1199699798558 1.0
Ag     2  0.1417937800374 -0.2190800468304 -0.4533033131891 1.0
Ag     2  0.2190800468304  0.3608738268679  0.2133633534776 1.0
END
