TITL 6Ag2Se-200724-185150-cbf0af -0.0240 389.298867 -6.91981792E+004 0 0 18 (I212121) n - 1
REM
REM Run started: Fri, 24 Jul 2020 22:32:25 +0100 in /scratch/scratch/uccabz1/launch_tmp/launcher_2020-07-24-17-51-48-844485
REM CASTEP 19.11| from code version Version unavailable
REM Functional Perdew Burke Ernzerhof Relativity Koelling-Harmon Dispersion off
REM Cut-off 300.0000 eV Grid scale 1.7500 Gmax 15.5288 1/A FBSC none
REM MP grid 3 3 3 Offset 0.000 0.000 0.000 No. kpts 8 Spacing 0.07
REM Total runtime: 13585.9 s
REM Overall efficiency: 98 %
REM
REM 6Ag2Se.cell (be4689b4cac7b37e3e738b5494392318)
REM
REM compiler GCC version 4.9.2
REM options -cpp -iprefix /scratch/UCL/applications/gcc/4.9.2/bin/../lib/gcc/x86_64-unknown-linux-gnu/4.9.2/ -mtune=corei7 -march=x86-64 -g -O2
REM COMMAND_LINE
REM seed 1141092573 954210006 870656330 -893733439 -1062267632 -1214085532 -1160333187 969406185 -2104677458 -2043681881 -2104296122 -2058945936
REM
REM Se 3|2.1|7|7|9|40:41:32(qc=5)
REM Ag 3|2.2|7|7|9|40U:50:41:42(qc=5)
REM 
CELL 1.54180    8.24462    8.24462    8.24462   89.05898  125.10913  116.18607
LATT -1
SFAC Se Ag 
Se     1 -0.0056940177188 -0.0590638316117 -0.0603101233498 1.0
Se     1 -0.0012462917381 -0.4409361683883 -0.4466301861070 1.0
Se     1 -0.4943059822812  0.4453838943690 -0.0533698138930 1.0
Se     1 -0.4987537082619  0.0546161056310 -0.4396898766502 1.0
Se     1  0.2500000000000  0.4725453729154  0.2225453729154 1.0
Se     1 -0.2500000000000  0.0274546270846  0.2774546270846 1.0
Ag     2  0.3075879613981  0.4475952294626 -0.4307190566897 1.0
Ag     2  0.1216857138477  0.0524047705374  0.3599927319355 1.0
Ag     2  0.1924120386019 -0.2383070180878  0.1400072680645 1.0
Ag     2  0.3783142861523 -0.2616929819122 -0.0692809433103 1.0
Ag     2 -0.2389909993095 -0.2891198128844  0.3293429969173 1.0
Ag     2 -0.3815371901983 -0.2108801871156 -0.4498711864251 1.0
Ag     2 -0.2610090006905  0.0683339962268 -0.0501288135749 1.0
Ag     2 -0.1184628098017  0.4316660037732  0.1706570030827 1.0
Ag     2  0.0704649210302  0.1303221230995 -0.3099465159108 1.0
Ag     2 -0.4402686390103  0.3696778769005  0.4401427979307 1.0
Ag     2  0.4295350789698  0.1195885630591  0.0598572020693 1.0
Ag     2 -0.0597313609897  0.3804114369409 -0.1900534840892 1.0
END
