TITL 6Ag2Se-200724-102106-76cffd -0.0294 347.267616 -6.91981880E+004 0 0 18 (P31) n - 1
REM
REM Run started: Fri, 24 Jul 2020 12:14:19 +0100 in /rds/user/bz240/hpc-work/airss-fw/launch_tmp/launcher_2020-07-24-09-21-03-672061
REM CASTEP 19.11| from code version Version unavailable
REM Functional Perdew Burke Ernzerhof Relativity Koelling-Harmon Dispersion off
REM Cut-off 300.0000 eV Grid scale 1.7500 Gmax 15.5288 1/A FBSC none
REM MP grid 4 4 1 Offset 0.000 0.000 0.000 No. kpts 8 Spacing 0.07
REM Total runtime: 7437.78 s
REM Overall efficiency: 97.1667 %
REM
REM 6Ag2Se.cell (be4689b4cac7b37e3e738b5494392318)
REM
REM compiler GCC version 4.8.5 20150623 (Red Hat 4.8.5-39)
REM options -cpp -mtune=generic -march=x86-64 -g -Og
REM COMMAND_LINE
REM seed -546472653 2093494509 -515638402 1839410200 -276239284 -1639511315 457786525 -568316090 -1961683910 380078491 -154707774 262516298
REM
REM Se 3|2.1|7|7|9|40:41:32(qc=5)
REM Ag 3|2.2|7|7|9|40U:50:41:42(qc=5)
REM 
CELL 1.54180    4.74312    4.74312   17.82402   90.00000   90.00000  120.00000
LATT -1
SFAC Se Ag 
Se     1 -0.3118148344186  0.4722606037011 -0.0617426194267 1.0
Se     1 -0.2159245618803  0.3118148344186 -0.3950759527600 1.0
Se     1 -0.4722606037011  0.2159245618803  0.2715907139067 1.0
Se     1  0.3355149435187 -0.2416366589811 -0.2163180144228 1.0
Se     1  0.4228483975001 -0.3355149435187  0.4503486522439 1.0
Se     1  0.2416366589811 -0.4228483975001  0.1170153189105 1.0
Ag     2  0.4419700186087 -0.3485920199058 -0.3879647029967 1.0
Ag     2  0.2094379614854 -0.4419700186087  0.2787019636700 1.0
Ag     2  0.3485920199058 -0.2094379614854 -0.0546313696634 1.0
Ag     2 -0.0987840327629 -0.0950875730026  0.3373476831261 1.0
Ag     2  0.0036964597604  0.0987840327629  0.0040143497928 1.0
Ag     2  0.0950875730026 -0.0036964597604 -0.3293189835405 1.0
Ag     2 -0.2373569417721  0.3345370849723  0.4268917815284 1.0
Ag     2 -0.4281059732555  0.2373569417721  0.0935584481951 1.0
Ag     2 -0.3345370849723  0.4281059732555 -0.2397748851383 1.0
Ag     2  0.1094596359660  0.0039137998163 -0.4953995278084 1.0
Ag     2 -0.1055458361498 -0.1094596359660  0.1712671388583 1.0
Ag     2 -0.0039137998163  0.1055458361498 -0.1620661944750 1.0
END
