TITL 6Ag2Se-200724-101709-037b77 0.0035 387.358632 -6.91980572E+004 0 0 18 (Fdd2) n - 1
REM
REM Run started: Fri, 24 Jul 2020 13:38:20 +0100 in /scratch/scratch/uccabz1/launch_tmp/launcher_2020-07-24-12-12-45-405268
REM CASTEP 19.11| from code version Version unavailable
REM Functional Perdew Burke Ernzerhof Relativity Koelling-Harmon Dispersion off
REM Cut-off 300.0000 eV Grid scale 1.7500 Gmax 15.5288 1/A FBSC none
REM MP grid 3 3 3 Offset 0.000 0.000 0.000 No. kpts 8 Spacing 0.07
REM Total runtime: 1665.55 s
REM Overall efficiency: 94.8 %
REM
REM
REM
REM compiler GCC version 4.8.5 20150623 (Red Hat 4.8.5-39)
REM options -cpp -mtune=generic -march=x86-64 -g -Og
REM COMMAND_LINE
REM seed -1513034411 -1627237539 1444478251 1162059238 895197655 -169780749 101201640 572330146 1269330738 -552119040 -1391884860 1767062855
REM
REM Se 3|2.1|7|7|9|40:41:32(qc=5)
REM Ag 3|2.2|7|7|9|40U:50:41:42(qc=5)
REM 
CELL 1.54180    7.66332    7.66332    8.30034  106.92933  106.92933  111.66652
LATT -1
SFAC Se Ag 
Se     1  0.2174710333102  0.1250708005903 -0.1912839979793 1.0
Se     1 -0.4087570312896 -0.3163547985696 -0.1912839979793 1.0
Se     1 -0.1249301994097  0.4674720333102  0.3087160020207 1.0
Se     1  0.4336442014304 -0.1587560312896  0.3087160020207 1.0
Se     1  0.1068676222073  0.1068686222073  0.2137372444146 1.0
Se     1 -0.1431323777927  0.3568686222073 -0.2862627555854 1.0
Ag     2  0.0720292606833 -0.2724396116289 -0.2811573021248 1.0
Ag     2 -0.3531885628081 -0.0087176904959 -0.2811573021248 1.0
Ag     2  0.4775593883711  0.3220302606833  0.2188426978752 1.0
Ag     2 -0.2587186904959 -0.1031875628081  0.2188426978752 1.0
Ag     2  0.3221256060279 -0.4039459187042 -0.0543770560178 1.0
Ag     2 -0.3765046620457  0.3495688626864 -0.0543770560178 1.0
Ag     2  0.3460530812958 -0.4278733939721  0.4456229439822 1.0
Ag     2  0.0995678626864 -0.1265036620457  0.4456229439822 1.0
Ag     2  0.0256197220304  0.3356208664422  0.0455407339147 1.0
Ag     2  0.0199190118843 -0.2900801325275  0.0455407339147 1.0
Ag     2  0.0856198664422  0.2756207220304 -0.4544592660853 1.0
Ag     2  0.4599188674725  0.2699200118843 -0.4544592660853 1.0
END
