TITL 6Ag2Se-200724-190344-9c66a9 0.1252 371.249908 -6.91985564E+004 0 0 18 (P-1) n - 1
REM
REM Run started: Sat, 25 Jul 2020 02:26:02 +0100 in /scratch/scratch/uccabz1/launch_tmp/launcher_2020-07-24-18-03-42-478238
REM CASTEP 19.11| from code version Version unavailable
REM Functional Perdew Burke Ernzerhof Relativity Koelling-Harmon Dispersion off
REM Cut-off 300.0000 eV Grid scale 1.7500 Gmax 15.5288 1/A FBSC none
REM MP grid 3 3 2 Offset 0.000 0.000 0.000 No. kpts 9 Spacing 0.07
REM Total runtime: 29202.5 s
REM Overall efficiency: 78.4167 %
REM
REM 6Ag2Se.cell (be4689b4cac7b37e3e738b5494392318)
REM
REM compiler GCC version 4.9.2
REM options -cpp -iprefix /scratch/UCL/applications/gcc/4.9.2/bin/../lib/gcc/x86_64-unknown-linux-gnu/4.9.2/ -mtune=corei7 -march=x86-64 -g -O2
REM COMMAND_LINE
REM seed -137457122 -1385471680 -183458494 -1321141916 125693962 920255964 -2029261729 979748157 193796214 -1725876525 -1050303676 1820205208
REM
REM Se 3|2.1|7|7|9|40:41:32(qc=5)
REM Ag 3|2.2|7|7|9|40U:50:41:42(qc=5)
REM 
CELL 1.54180    6.88784    7.21652    8.24408   80.18537   84.00244   66.95871
LATT -1
SFAC Se Ag 
Se     1  0.4453287642961 -0.4443462602979 -0.2887300274140 1.0
Se     1 -0.4453287642961  0.4443462602979  0.2887300274140 1.0
Se     1  0.0304465720604  0.3108816505317 -0.3440634333749 1.0
Se     1 -0.0304465720604 -0.3108816505317  0.3440634333749 1.0
Se     1  0.2711667963660  0.0551228503794  0.1411862173984 1.0
Se     1 -0.2711667963660 -0.0551228503794 -0.1411862173984 1.0
Ag     2  0.1253576723095 -0.2128698997647  0.0506923495384 1.0
Ag     2 -0.1253576723095  0.2128698997647 -0.0506923495384 1.0
Ag     2  0.2703924423943 -0.0603295406181 -0.2574892748600 1.0
Ag     2 -0.2703924423943  0.0603295406181  0.2574892748600 1.0
Ag     2  0.2712106706381 -0.1935386895964  0.4288729242345 1.0
Ag     2 -0.2712106706381  0.1935386895964 -0.4288729242345 1.0
Ag     2 -0.3228930502685 -0.1888103033025 -0.4258148797749 1.0
Ag     2  0.3228930502685  0.1888103033025  0.4258148797749 1.0
Ag     2 -0.0422567594033  0.4029129216062  0.1901927495665 1.0
Ag     2  0.0422567594033 -0.4029129216062 -0.1901927495665 1.0
Ag     2 -0.4027582317007 -0.3527636497707 -0.0236658939959 1.0
Ag     2  0.4027582317007  0.3527636497707  0.0236658939959 1.0
END
