TITL 6Ag2Se-200725-001338-37168f -0.0186 366.006155 -6.91982772E+004 0 0 18 (Pmc21) n - 1
REM
REM Run started: Sat, 25 Jul 2020 04:30:05 +0100 in /scratch/scratch/uccabz1/launch_tmp/launcher_2020-07-24-23-13-36-652510
REM CASTEP 19.11| from code version Version unavailable
REM Functional Perdew Burke Ernzerhof Relativity Koelling-Harmon Dispersion off
REM Cut-off 300.0000 eV Grid scale 1.7500 Gmax 15.5288 1/A FBSC none
REM MP grid 3 3 2 Offset 0.000 0.000 0.000 No. kpts 4 Spacing 0.07
REM Total runtime: 15702.5 s
REM Overall efficiency: 97.5 %
REM
REM 6Ag2Se.cell (be4689b4cac7b37e3e738b5494392318)
REM
REM compiler GCC version 4.9.2
REM options -cpp -iprefix /scratch/UCL/applications/gcc/4.9.2/bin/../lib/gcc/x86_64-unknown-linux-gnu/4.9.2/ -mtune=corei7 -march=x86-64 -g -O2
REM COMMAND_LINE
REM seed -806663596 484023844 -59449578 1515924340 803168502 2140266775 1039127703 779508861 2746709 2083522501 -1558248654 969156468
REM
REM Se 3|2.1|7|7|9|40:41:32(qc=5)
REM Ag 3|2.2|7|7|9|40U:50:41:42(qc=5)
REM 
CELL 1.54180    5.68436    5.73445   11.22832   90.00000   90.00000   90.00000
LATT -1
SFAC Se Ag 
Se     1 -0.2479999200222 -0.5122937802323  0.3571014855197 1.0
Se     1  0.2479999200222 -0.0122937802323 -0.3571014855197 1.0
Se     1  0.2479999200222 -0.0122937802323  0.3571014855197 1.0
Se     1 -0.2479999200222 -0.5122937802323 -0.3571014855197 1.0
Se     1  0.2750656883128  0.4560415568043  0.0000000000000 1.0
Se     1 -0.2750656883128 -0.0439584431957  0.0000000000000 1.0
Ag     2  0.4341638667028 -0.2246336140701  0.1717132683583 1.0
Ag     2 -0.4341638667028  0.2753663859299 -0.1717132683583 1.0
Ag     2 -0.4341638667028  0.2753663859299  0.1717132683583 1.0
Ag     2  0.4341638667028 -0.2246336140701 -0.1717132683583 1.0
Ag     2  0.2448079780688  0.4825940998185  0.3665228024361 1.0
Ag     2 -0.2448079780688 -0.0174059001815 -0.3665228024361 1.0
Ag     2 -0.2448079780688 -0.0174059001815  0.3665228024361 1.0
Ag     2  0.2448079780688  0.4825940998185 -0.3665228024361 1.0
Ag     2  0.0642087421500  0.1379477660818  0.1530172810456 1.0
Ag     2 -0.0642087421500 -0.3620522339182 -0.1530172810456 1.0
Ag     2 -0.0642087421500 -0.3620522339182  0.1530172810456 1.0
Ag     2  0.0642087421500  0.1379477660818 -0.1530172810456 1.0
END
