TITL 6Ag2Se-200724-101826-861216 0.0206 383.383994 -6.91985307E+004 0 0 18 (P31) n - 1
REM
REM Run started: Fri, 24 Jul 2020 12:28:21 +0100 in /scratch/scratch/uccabz1/launch_tmp/launcher_2020-07-24-09-18-23-897711
REM CASTEP 19.11| from code version Version unavailable
REM Functional Perdew Burke Ernzerhof Relativity Koelling-Harmon Dispersion off
REM Cut-off 300.0000 eV Grid scale 1.7500 Gmax 15.5288 1/A FBSC none
REM MP grid 3 3 2 Offset 0.000 0.000 0.000 No. kpts 5 Spacing 0.07
REM Total runtime: 7965.01 s
REM Overall efficiency: 96.7143 %
REM
REM 6Ag2Se.cell (be4689b4cac7b37e3e738b5494392318)
REM
REM compiler GCC version 4.9.2
REM options -cpp -iprefix /scratch/UCL/applications/gcc/4.9.2/bin/../lib/gcc/x86_64-unknown-linux-gnu/4.9.2/ -mtune=corei7 -march=x86-64 -g -O2
REM COMMAND_LINE
REM seed -1187779781 738885866 -1518961636 -1262697959 1446932036 -1582344565 -1332415403 -1157234782 295697692 -195775616 -1049280812 -566428244
REM
REM Se 3|2.1|7|7|9|40:41:32(qc=5)
REM Ag 3|2.2|7|7|9|40U:50:41:42(qc=5)
REM 
CELL 1.54180    7.22987    7.22987    8.46920   90.00000   90.00000  120.00000
LATT -1
SFAC Se Ag 
Se     1 -0.3339811720793 -0.3224550088346 -0.3091018126738 1.0
Se     1  0.3224550088346 -0.0115261632446  0.0242315206595 1.0
Se     1  0.0115261632447  0.3339811720793  0.3575648539928 1.0
Se     1  0.4392916747641  0.0493398939949 -0.4426871210464 1.0
Se     1 -0.0493398939949  0.3899517807693 -0.1093537877130 1.0
Se     1 -0.3899517807693 -0.4392916747641  0.2239795456203 1.0
Ag     2 -0.1835211376985  0.4567469246104 -0.4450005578084 1.0
Ag     2 -0.4567469246104  0.3597319376911 -0.1116672244750 1.0
Ag     2 -0.3597319376911  0.1835211376985  0.2216661088583 1.0
Ag     2  0.1115410748105  0.0665906426230  0.4708548114511 1.0
Ag     2 -0.0665906426230  0.0449504321875 -0.1958118552155 1.0
Ag     2 -0.0449504321875 -0.1115410748105  0.1375214781178 1.0
Ag     2  0.2171053203002  0.3646635448141  0.0835125141655 1.0
Ag     2 -0.3646635448141 -0.1475582245140  0.4168458474988 1.0
Ag     2  0.1475582245140 -0.2171053203002 -0.2498208191678 1.0
Ag     2 -0.4572102806125 -0.2236475680695 -0.0138983674214 1.0
Ag     2  0.2236475680695 -0.2335627125430  0.3194349659119 1.0
Ag     2  0.2335627125430  0.4572102806125 -0.3472317007548 1.0
END
