TITL 6Ag2Se-200724-184956-b9bd4c 0.0052 365.014851 -6.91985669E+004 0 0 18 (P-1) n - 1
REM
REM Run started: Sat, 25 Jul 2020 04:53:13 +0100 in /scratch/scratch/uccabz1/launch_tmp/launcher_2020-07-25-02-14-03-825695
REM CASTEP 19.11| from code version Version unavailable
REM Functional Perdew Burke Ernzerhof Relativity Koelling-Harmon Dispersion off
REM Cut-off 300.0000 eV Grid scale 1.7500 Gmax 15.5288 1/A FBSC none
REM MP grid 5 4 1 Offset 0.000 0.000 0.000 No. kpts 10 Spacing 0.07
REM Total runtime: 8987.91 s
REM Overall efficiency: 98 %
REM
REM
REM
REM compiler GCC version 4.9.2
REM options -cpp -iprefix /scratch/UCL/applications/gcc/4.9.2/bin/../lib/gcc/x86_64-unknown-linux-gnu/4.9.2/ -mtune=corei7 -march=x86-64 -g -O2
REM COMMAND_LINE
REM seed -1419346795 -866030508 1718013788 184522646 436732602 1491479410 1579466037 1858939490 -1126451753 -956397163 1786383927 1984074279
REM
REM Se 3|2.1|7|7|9|40:41:32(qc=5)
REM Ag 3|2.2|7|7|9|40U:50:41:42(qc=5)
REM 
CELL 1.54180    4.12556    5.04671   20.36256   90.64618   85.04880   59.98779
LATT -1
SFAC Se Ag 
Se     1 -0.0229829392178 -0.7144035860653  0.2462842662000 1.0
Se     1  0.0229829392178  0.7144035860653 -0.2462842662000 1.0
Se     1 -0.1801338600755  0.2430546363882 -0.0747474857592 1.0
Se     1  0.1801338600755 -0.2430546363882  0.0747474857592 1.0
Se     1 -0.0227918080429  0.1787921885363 -0.4121680638392 1.0
Se     1  0.0227918080429 -0.1787921885363  0.4121680638392 1.0
Ag     2  0.5942850159071 -0.0378999450364  0.3094150066005 1.0
Ag     2 -0.5942850159071  0.0378999450364 -0.3094150066005 1.0
Ag     2 -0.8293995357255  0.5961794241077 -0.3784662168216 1.0
Ag     2  0.8293995357255 -0.5961794241077  0.3784662168216 1.0
Ag     2 -0.5375555595915 -0.0545112371508 -0.1472158964598 1.0
Ag     2  0.5375555595915  0.0545112371508  0.1472158964598 1.0
Ag     2 -0.2534327368343  0.3322021883951 -0.2073752430448 1.0
Ag     2  0.2534327368343 -0.3322021883951  0.2073752430448 1.0
Ag     2  0.0547994751900 -0.3495718576673 -0.0581725016474 1.0
Ag     2 -0.0547994751900  0.3495718576673  0.0581725016474 1.0
Ag     2 -0.6199812323586  0.2911850784569 -0.5207733387950 1.0
Ag     2  0.6199812323586 -0.2911850784569  0.5207733387950 1.0
END
