TITL 6Ag2Se-200725-105409-3ee867 0.0102 363.131047 -6.91987720E+004 0 0 18 (Iba2) n - 1
REM
REM Run started: Sat, 25 Jul 2020 17:21:52 +0100 in /scratch/scratch/uccabz1/launch_tmp/launcher_2020-07-25-13-51-15-836676
REM CASTEP 19.11| from code version Version unavailable
REM Functional Perdew Burke Ernzerhof Relativity Koelling-Harmon Dispersion off
REM Cut-off 300.0000 eV Grid scale 1.7500 Gmax 15.5288 1/A FBSC none
REM MP grid 3 3 3 Offset 0.000 0.000 0.000 No. kpts 8 Spacing 0.07
REM Total runtime: 9593.17 s
REM Overall efficiency: 98 %
REM
REM
REM
REM compiler GCC version 4.9.2
REM options -cpp -iprefix /scratch/UCL/applications/gcc/4.9.2/bin/../lib/gcc/x86_64-unknown-linux-gnu/4.9.2/ -mtune=corei7 -march=x86-64 -g -O2
REM COMMAND_LINE
REM seed 897332356 -666107985 -445620426 1247517832 -24033764 1488391793 -200928499 1891800222 -738985999 1066558056 -1660586729 -1266846271
REM
REM Se 3|2.1|7|7|9|40:41:32(qc=5)
REM Ag 3|2.2|7|7|9|40U:50:41:42(qc=5)
REM 
CELL 1.54180    7.27795    8.09536    8.09536   92.10917   63.28751   63.28751
LATT -1
SFAC Se Ag 
Se     1  0.3283860800877 -0.0547946216738 -0.3406904362179 1.0
Se     1  0.0670989778039 -0.3406904362179 -0.0547946216738 1.0
Se     1 -0.1716139199123  0.1593095637821  0.4452053783262 1.0
Se     1 -0.4329010221961  0.4452053783262  0.1593095637821 1.0
Se     1 -0.1014870641223 -0.3985129358777 -0.3985129358777 1.0
Se     1  0.3985129358777  0.1014870641223  0.1014870641223 1.0
Ag     2  0.0956620928375  0.2367030762170 -0.4276229720856 1.0
Ag     2  0.0952578030311 -0.4276229720856  0.2367030762170 1.0
Ag     2 -0.4043379071625  0.0723770279144 -0.2632969237830 1.0
Ag     2 -0.4047421969689 -0.2632969237830  0.0723770279144 1.0
Ag     2 -0.3643094628189  0.0029643076254  0.3110332995021 1.0
Ag     2  0.0503118556913  0.3110332995021  0.0029643076254 1.0
Ag     2  0.1356905371811 -0.1889667004978 -0.4970356923746 1.0
Ag     2  0.5503118556913 -0.4970356923746 -0.1889667004978 1.0
Ag     2  0.1543559371140 -0.0900987054870  0.0801789879974 1.0
Ag     2 -0.1444362196244  0.0801789879974 -0.0900987054870 1.0
Ag     2 -0.3456440628860 -0.4198210120026  0.4099012945130 1.0
Ag     2  0.3555637803756  0.4099012945130 -0.4198210120026 1.0
END
