TITL 6Ag2Se-200725-055419-b77a8f -0.0486 392.988130 -6.91971073E+004 0 0 18 (P2) n - 1
REM
REM Run started: Sat, 25 Jul 2020 10:38:07 +0100 in /scratch/scratch/uccabz1/launch_tmp/launcher_2020-07-25-04-54-16-329220
REM CASTEP 19.11| from code version Version unavailable
REM Functional Perdew Burke Ernzerhof Relativity Koelling-Harmon Dispersion off
REM Cut-off 300.0000 eV Grid scale 1.7500 Gmax 15.5288 1/A FBSC none
REM MP grid 4 2 2 Offset 0.000 0.000 0.000 No. kpts 4 Spacing 0.07
REM Total runtime: 17666.6 s
REM Overall efficiency: 98 %
REM
REM 6Ag2Se.cell (be4689b4cac7b37e3e738b5494392318)
REM
REM compiler GCC version 4.9.2
REM options -cpp -iprefix /scratch/UCL/applications/gcc/4.9.2/bin/../lib/gcc/x86_64-unknown-linux-gnu/4.9.2/ -mtune=corei7 -march=x86-64 -g -O2
REM COMMAND_LINE
REM seed -1619498350 -314369918 -1872675612 1331991621 328095331 381235248 -1375602531 1149928404 -112317225 693049119 809191359 -762169894
REM
REM Se 3|2.1|7|7|9|40:41:32(qc=5)
REM Ag 3|2.2|7|7|9|40U:50:41:42(qc=5)
REM 
CELL 1.54180    4.85433    8.55849   10.11355   90.00000   90.00000  110.72396
LATT -1
SFAC Se Ag 
Se     1 -0.6902239368038 -0.3309192103672 -0.3065457384685 1.0
Se     1  0.6902239368038  0.3309192103672 -0.3065457384685 1.0
Se     1  0.2655174113141  0.2088791715074  0.0522222332072 1.0
Se     1 -0.2655174113141 -0.2088791715074  0.0522222332072 1.0
Se     1  0.1114560448194 -0.1798528463048  0.3684362836587 1.0
Se     1 -0.1114560448194  0.1798528463048  0.3684362836587 1.0
Ag     2 -0.1902469843469 -0.4032215718429 -0.4659652167093 1.0
Ag     2  0.1902469843469  0.4032215718429 -0.4659652167093 1.0
Ag     2  0.4975837813912  0.3321441816340  0.3144497172929 1.0
Ag     2 -0.4975837813912 -0.3321441816340  0.3144497172929 1.0
Ag     2 -0.3130335913315 -0.0911704905363 -0.4674823044607 1.0
Ag     2  0.3130335913315  0.0911704905363 -0.4674823044607 1.0
Ag     2 -0.1955493415854 -0.4001365438640 -0.1389679065037 1.0
Ag     2  0.1955493415854  0.4001365438640 -0.1389679065037 1.0
Ag     2 -0.1660664274528  0.3199854481198  0.0925955415492 1.0
Ag     2  0.1660664274528 -0.3199854481198  0.0925955415492 1.0
Ag     2 -0.2967991203774 -0.0834027623914 -0.1827580095658 1.0
Ag     2  0.2967991203774  0.0834027623914 -0.1827580095658 1.0
END
