TITL 6Ag2Se-200724-183820-d4b7c3 -0.0057 373.208932 -6.91973456E+004 0 0 18 (P2) n - 1
REM
REM Run started: Fri, 24 Jul 2020 20:04:28 +0100 in /scratch/scratch/uccabz1/launch_tmp/launcher_2020-07-24-17-38-19-074598
REM CASTEP 19.11| from code version Version unavailable
REM Functional Perdew Burke Ernzerhof Relativity Koelling-Harmon Dispersion off
REM Cut-off 300.0000 eV Grid scale 1.7500 Gmax 15.5288 1/A FBSC none
REM MP grid 3 2 2 Offset 0.000 0.000 0.000 No. kpts 3 Spacing 0.07
REM Total runtime: 5385.35 s
REM Overall efficiency: 82.25 %
REM
REM 6Ag2Se.cell (be4689b4cac7b37e3e738b5494392318)
REM
REM compiler GCC version 4.9.2
REM options -cpp -iprefix /scratch/UCL/applications/gcc/4.9.2/bin/../lib/gcc/x86_64-unknown-linux-gnu/4.9.2/ -mtune=corei7 -march=x86-64 -g -O2
REM COMMAND_LINE
REM seed 1217775242 -344385958 1775675136 242015476 -1176675604 265009928 1745467590 -1139570250 -1098019692 -1233565696 199008690 -2095720139
REM
REM Se 3|2.1|7|7|9|40:41:32(qc=5)
REM Ag 3|2.2|7|7|9|40U:50:41:42(qc=5)
REM 
CELL 1.54180    5.50945    7.68655    9.25192   90.00000   90.00000  107.72396
LATT -1
SFAC Se Ag 
Se     1 -0.1391945739531 -0.2952418475013  0.4681812838564 1.0
Se     1  0.1391945739531  0.2952418475013  0.4681812838564 1.0
Se     1  0.3547292719491 -0.2670253848515  0.1592694619565 1.0
Se     1 -0.3547292719491  0.2670253848515  0.1592694619565 1.0
Se     1 -0.3501451655194  0.2589864295747 -0.2539845325591 1.0
Se     1  0.3501451655194 -0.2589864295747 -0.2539845325591 1.0
Ag     2 -0.1356565428374 -0.2307690778809  0.1630595602829 1.0
Ag     2  0.1356565428374  0.2307690778809  0.1630595602829 1.0
Ag     2  0.1351872507275  0.1976112391759 -0.2560609680871 1.0
Ag     2 -0.1351872507275 -0.1976112391759 -0.2560609680871 1.0
Ag     2  0.2369439051463 -0.0357710692986 -0.0401090432748 1.0
Ag     2 -0.2369439051463  0.0357710692986 -0.0401090432748 1.0
Ag     2 -0.3501539563624  0.3354109679243  0.4623624379873 1.0
Ag     2  0.3501539563624 -0.3354109679243  0.4623624379873 1.0
Ag     2 -0.2438276624924 -0.4860696327706 -0.0569997649378 1.0
Ag     2  0.2438276624924  0.4860696327706 -0.0569997649378 1.0
Ag     2  0.2519412869698 -0.0057465991537  0.3733263647759 1.0
Ag     2 -0.2519412869698  0.0057465991537  0.3733263647759 1.0
END
