TITL 6Ag2Se-200724-193108-4690ef 0.1216 366.829623 -6.91984620E+004 0 0 18 (Pc) n - 1
REM
REM Run started: Fri, 24 Jul 2020 23:53:49 +0100 in /rds/user/bz240/hpc-work/airss-fw/launch_tmp/launcher_2020-07-24-18-31-06-447908
REM CASTEP 19.11| from code version Version unavailable
REM Functional Perdew Burke Ernzerhof Relativity Koelling-Harmon Dispersion off
REM Cut-off 300.0000 eV Grid scale 1.7500 Gmax 15.5288 1/A FBSC none
REM MP grid 4 2 2 Offset 0.000 0.000 0.000 No. kpts 4 Spacing 0.07
REM Total runtime: 17365.9 s
REM Overall efficiency: 93 %
REM
REM 6Ag2Se.cell (be4689b4cac7b37e3e738b5494392318)
REM
REM compiler GCC version 4.8.5 20150623 (Red Hat 4.8.5-39)
REM options -cpp -mtune=generic -march=x86-64 -g -Og
REM COMMAND_LINE
REM seed -1359123600 -1405147177 1458469918 -1131013310 -1156408992 1260755169 567660806 -934926518 -1693348499 -550338679 1135768889 -2086433655
REM
REM Se 3|2.1|7|7|9|40:41:32(qc=5)
REM Ag 3|2.2|7|7|9|40U:50:41:42(qc=5)
REM 
CELL 1.54180    4.66202    8.01145   10.54815   90.00000   90.00000  111.39078
LATT -1
SFAC Se Ag 
Se     1 -0.2186681886365 -0.2641781212109 -0.3269051041829 1.0
Se     1 -0.2186681886365  0.2358218787891  0.3269051041829 1.0
Se     1  0.2936859864230  0.4121371605694  0.0607764633645 1.0
Se     1  0.2936859864230 -0.0878628394306 -0.0607764633645 1.0
Se     1 -0.0395971098215  0.2245324796657 -0.3415146292607 1.0
Se     1 -0.0395971098215 -0.2754675203343  0.3415146292607 1.0
Ag     2  0.2020253418413 -0.3972620935351 -0.4170660583229 1.0
Ag     2  0.2020253418413  0.1027379064649  0.4170660583229 1.0
Ag     2  0.3696317772562  0.4872877472160  0.3295723460549 1.0
Ag     2  0.3696317772562 -0.0127122527840 -0.3295723460549 1.0
Ag     2 -0.0900123213300 -0.4150938061016  0.1068813777739 1.0
Ag     2 -0.0900123213300  0.0849061938984 -0.1068813777739 1.0
Ag     2 -0.4350345930425  0.3813415252657 -0.4177856632423 1.0
Ag     2 -0.4350345930425 -0.1186584747343  0.4177856632423 1.0
Ag     2 -0.4235432900063 -0.3371762556208 -0.0991255372108 1.0
Ag     2 -0.4235432900063  0.1628237443792  0.0991255372108 1.0
Ag     2 -0.0736153026837 -0.0530335362485  0.1518686288347 1.0
Ag     2 -0.0736153026837 -0.5530335362485 -0.1518686288347 1.0
END
