TITL 6Ag2Se-200724-221244-8cbc14 0.0214 367.235560 -6.91973538E+004 0 0 18 (P32) n - 1
REM
REM Run started: Sat, 25 Jul 2020 03:38:38 +0100 in /scratch/scratch/uccabz1/launch_tmp/launcher_2020-07-24-21-12-42-264485
REM CASTEP 19.11| from code version Version unavailable
REM Functional Perdew Burke Ernzerhof Relativity Koelling-Harmon Dispersion off
REM Cut-off 300.0000 eV Grid scale 1.7500 Gmax 15.5288 1/A FBSC none
REM MP grid 4 2 2 Offset 0.000 0.000 0.000 No. kpts 8 Spacing 0.07
REM Total runtime: 20342.6 s
REM Overall efficiency: 98 %
REM
REM 6Ag2Se.cell (be4689b4cac7b37e3e738b5494392318)
REM
REM compiler GCC version 4.9.2
REM options -cpp -iprefix /scratch/UCL/applications/gcc/4.9.2/bin/../lib/gcc/x86_64-unknown-linux-gnu/4.9.2/ -mtune=corei7 -march=x86-64 -g -O2
REM COMMAND_LINE
REM seed -728339168 1851918120 -950029423 1313111002 -876623809 1551520884 1170433357 1777128929 -1250553595 1837895994 1017406293 308534220
REM
REM Se 3|2.1|7|7|9|40:41:32(qc=5)
REM Ag 3|2.2|7|7|9|40U:50:41:42(qc=5)
REM 
CELL 1.54180    4.50209    9.70510    9.70510  120.00000   90.00000   90.00000
LATT -1
SFAC Se Ag 
Se     1 -0.3588688806537  0.4565164802286  0.3092886158237 1.0
Se     1 -0.0255355473204 -0.1472278644049 -0.4565164802286 1.0
Se     1  0.3077977860129 -0.3092886158237  0.1472278644049 1.0
Se     1 -0.0233948264667  0.1251492386671  0.3953106561262 1.0
Se     1  0.3099385068666  0.2701614174591 -0.1251492386671 1.0
Se     1 -0.3567281598000 -0.3953106561262 -0.2701614174591 1.0
Ag     2  0.4757370829575 -0.1249576150153 -0.3012112377161 1.0
Ag     2 -0.1909295837092 -0.1762536227008  0.1249576150153 1.0
Ag     2  0.1424037496241  0.3012112377161  0.1762536227008 1.0
Ag     2 -0.0366821008102  0.0406991056254 -0.1183399571902 1.0
Ag     2  0.2966512325231 -0.1590390628157 -0.0406991056254 1.0
Ag     2 -0.3700154341435  0.1183399571902  0.1590390628157 1.0
Ag     2  0.4550252198253  0.3106528045529 -0.4932829315904 1.0
Ag     2 -0.2116414468413  0.1960642638567 -0.3106528045529 1.0
Ag     2  0.1216918864920  0.4932829315904 -0.1960642638567 1.0
Ag     2  0.1201585718145 -0.4275138357232 -0.4759898650863 1.0
Ag     2 -0.5465080948522 -0.0484760293631  0.4275138357232 1.0
Ag     2 -0.2131747615189  0.4759898650863  0.0484760293631 1.0
END
