TITL 6Ag2Se-200724-205855-433c0a -0.0164 379.953123 -6.91988096E+004 0 0 18 (P31) n - 1
REM
REM Run started: Sat, 25 Jul 2020 00:24:09 +0100 in /rds/user/bz240/hpc-work/airss-fw/launch_tmp/launcher_2020-07-24-19-58-52-830909
REM CASTEP 19.11| from code version Version unavailable
REM Functional Perdew Burke Ernzerhof Relativity Koelling-Harmon Dispersion off
REM Cut-off 300.0000 eV Grid scale 1.7500 Gmax 15.5288 1/A FBSC none
REM MP grid 2 3 3 Offset 0.000 0.000 0.000 No. kpts 5 Spacing 0.07
REM Total runtime: 12686.7 s
REM Overall efficiency: 77.4444 %
REM
REM 6Ag2Se.cell (be4689b4cac7b37e3e738b5494392318)
REM
REM compiler GCC version 4.8.5 20150623 (Red Hat 4.8.5-39)
REM options -cpp -mtune=generic -march=x86-64 -g -Og
REM COMMAND_LINE
REM seed -906791430 -728245356 1795872755 -1671954381 414783024 -1735839858 -498663998 -2116104322 1761133053 1292026096 842349235 881558949
REM
REM Se 3|2.1|7|7|9|40:41:32(qc=5)
REM Ag 3|2.2|7|7|9|40U:50:41:42(qc=5)
REM 
CELL 1.54180    8.17688    7.32497    7.32497  120.00000   90.00000   90.00000
LATT -1
SFAC Se Ag 
Se     1 -0.2231034428016  0.0006770016586  0.2997458925148 1.0
Se     1  0.1102298905317 -0.2997458925148 -0.2990689908563 1.0
Se     1  0.4435632238650  0.2990689908563 -0.0006770016586 1.0
Se     1 -0.3985351878491 -0.3766370923135 -0.3178544715663 1.0
Se     1 -0.0652018545157  0.3178544715663 -0.0587827207472 1.0
Se     1  0.2681314788176  0.0587827207472  0.3766370923135 1.0
Ag     2  0.4868237940681 -0.0736374887936  0.0611432171482 1.0
Ag     2 -0.1798428725986 -0.0611432171482 -0.1347808059418 1.0
Ag     2  0.1534904607347  0.1347808059418  0.0736374887936 1.0
Ag     2 -0.3524300584668  0.2388431364148 -0.3086887140864 1.0
Ag     2 -0.0190967251335  0.3086887140864 -0.4524682494989 1.0
Ag     2  0.3142366081999  0.4524682494989 -0.2388431364148 1.0
Ag     2 -0.3050099261225  0.3293405214897  0.2479389638970 1.0
Ag     2  0.0283234072108 -0.2479389638970  0.0814014575927 1.0
Ag     2  0.3616567405442 -0.0814014575927 -0.3293405214897 1.0
Ag     2 -0.0012438788281 -0.4442750649987  0.3319856259831 1.0
Ag     2  0.3320894545053 -0.3319856259831  0.2237392090182 1.0
Ag     2 -0.3345772121614 -0.2237392090182  0.4442750649987 1.0
END
