TITL 6Ag2Se-200725-010633-bcf988 -0.0482 379.065053 -6.91969415E+004 0 0 18 (Pnc2) n - 1
REM
REM Run started: Sat, 25 Jul 2020 07:11:46 +0100 in /scratch/scratch/uccabz1/launch_tmp/launcher_2020-07-25-00-06-30-854937
REM CASTEP 19.11| from code version Version unavailable
REM Functional Perdew Burke Ernzerhof Relativity Koelling-Harmon Dispersion off
REM Cut-off 300.0000 eV Grid scale 1.7500 Gmax 15.5288 1/A FBSC none
REM MP grid 3 3 2 Offset 0.000 0.000 0.000 No. kpts 4 Spacing 0.07
REM Total runtime: 23947.5 s
REM Overall efficiency: 98 %
REM
REM 6Ag2Se.cell (be4689b4cac7b37e3e738b5494392318)
REM
REM compiler GCC version 4.9.2
REM options -cpp -iprefix /scratch/UCL/applications/gcc/4.9.2/bin/../lib/gcc/x86_64-unknown-linux-gnu/4.9.2/ -mtune=corei7 -march=x86-64 -g -O2
REM COMMAND_LINE
REM seed 428984654 869091497 -1017427709 -1599525393 1911657273 -187634632 -326324238 -26753929 -917179471 -332500491 1916938193 -936799463
REM
REM Se 3|2.1|7|7|9|40:41:32(qc=5)
REM Ag 3|2.2|7|7|9|40U:50:41:42(qc=5)
REM 
CELL 1.54180    6.18074    6.38744    9.60166   90.00000   90.00000   90.00000
LATT -1
SFAC Se Ag 
Se     1 -0.4825719390033  0.0612004662023  0.2407078343327 1.0
Se     1  0.4825719390033  0.0612004662023 -0.2407078343327 1.0
Se     1 -0.0174280609967 -0.4387995337977  0.2407078343327 1.0
Se     1  0.0174280609967 -0.4387995337977 -0.2407078343327 1.0
Se     1 -0.0000000000000 -0.1087927139191  0.5000000000000 1.0
Se     1  0.5000000000000  0.3912072860809  0.5000000000000 1.0
Ag     2 -0.3692430699890  0.4397440627584 -0.1363702697263 1.0
Ag     2  0.3692430699890  0.4397440627584  0.1363702697263 1.0
Ag     2 -0.1307569300110 -0.0602559372416 -0.1363702697263 1.0
Ag     2  0.1307569300110 -0.0602559372416  0.1363702697263 1.0
Ag     2  0.3211395681868 -0.2487232488774 -0.0932292562236 1.0
Ag     2 -0.3211395681868 -0.2487232488774  0.0932292562236 1.0
Ag     2  0.1788604318132  0.2512767511226 -0.0932292562236 1.0
Ag     2 -0.1788604318132  0.2512767511226  0.0932292562236 1.0
Ag     2 -0.3625238819856 -0.2659425731238 -0.3809236562167 1.0
Ag     2  0.3625238819856 -0.2659425731238  0.3809236562167 1.0
Ag     2 -0.1374761180144  0.2340574268762 -0.3809236562167 1.0
Ag     2  0.1374761180144  0.2340574268762  0.3809236562167 1.0
END
