TITL 6Ag2Se-200724-192415-db1ffa -0.0282 374.445795 -6.91979125E+004 0 0 18 (P32) n - 1
REM
REM Run started: Fri, 24 Jul 2020 23:23:19 +0100 in /scratch/scratch/uccabz1/launch_tmp/launcher_2020-07-24-18-24-13-835668
REM CASTEP 19.11| from code version Version unavailable
REM Functional Perdew Burke Ernzerhof Relativity Koelling-Harmon Dispersion off
REM Cut-off 300.0000 eV Grid scale 1.7500 Gmax 15.5288 1/A FBSC none
REM MP grid 4 2 2 Offset 0.000 0.000 0.000 No. kpts 8 Spacing 0.07
REM Total runtime: 14474.2 s
REM Overall efficiency: 97.25 %
REM
REM 6Ag2Se.cell (be4689b4cac7b37e3e738b5494392318)
REM
REM compiler GCC version 4.9.2
REM options -cpp -iprefix /scratch/UCL/applications/gcc/4.9.2/bin/../lib/gcc/x86_64-unknown-linux-gnu/4.9.2/ -mtune=corei7 -march=x86-64 -g -O2
REM COMMAND_LINE
REM seed 670420246 819071441 -954590471 -1641659143 507638804 -203578346 2119483337 -1001238468 394090585 1481285146 800513004 -664019543
REM
REM Se 3|2.1|7|7|9|40:41:32(qc=5)
REM Ag 3|2.2|7|7|9|40U:50:41:42(qc=5)
REM 
CELL 1.54180    4.06384   10.31480   10.31480  120.00000   90.00000   90.00000
LATT -1
SFAC Se Ag 
Se     1 -0.2498619865529  0.1049004278686  0.4846746068751 1.0
Se     1  0.4168046801137 -0.4846746068751 -0.3797741790065 1.0
Se     1  0.0834713467804  0.3797741790065 -0.1049004278686 1.0
Se     1 -0.1395816331787  0.3079817114807  0.2457136038706 1.0
Se     1  0.5270850334880 -0.2457136038706  0.0622681076101 1.0
Se     1  0.1937517001546 -0.0622681076101 -0.3079817114807 1.0
Ag     2  0.2099975007201 -0.0735824124959  0.3127864085606 1.0
Ag     2 -0.1233358326132 -0.3127864085606 -0.3863688210565 1.0
Ag     2  0.5433308340535  0.3863688210565  0.0735824124959 1.0
Ag     2  0.0512475855923  0.1281345643584 -0.0285923973697 1.0
Ag     2 -0.2820857477410  0.0285923973697  0.1567269617281 1.0
Ag     2 -0.6154190810743 -0.1567269617281 -0.1281345643584 1.0
Ag     2 -0.3896352184661  0.1734749616421 -0.2377835001880 1.0
Ag     2  0.2770314482006  0.2377835001880  0.4112584618301 1.0
Ag     2 -0.0563018851327 -0.4112584618301 -0.1734749616421 1.0
Ag     2  0.3460751518853 -0.4527611793056  0.3716744261304 1.0
Ag     2  0.0127418185519 -0.3716744261304  0.1755643945639 1.0
Ag     2 -0.3205915147814 -0.1755643945639  0.4527611793056 1.0
END
