TITL 6Ag2Se-200724-192930-c9d735 -0.0205 354.981568 -6.91982466E+004 0 0 18 (P31) n - 1
REM
REM Run started: Fri, 24 Jul 2020 22:09:49 +0100 in /scratch/scratch/uccabz1/launch_tmp/launcher_2020-07-24-18-29-27-893297
REM CASTEP 19.11| from code version Version unavailable
REM Functional Perdew Burke Ernzerhof Relativity Koelling-Harmon Dispersion off
REM Cut-off 300.0000 eV Grid scale 1.7500 Gmax 15.5288 1/A FBSC none
REM MP grid 4 4 1 Offset 0.000 0.000 0.000 No. kpts 8 Spacing 0.07
REM Total runtime: 9778.88 s
REM Overall efficiency: 96.5714 %
REM
REM 6Ag2Se.cell (be4689b4cac7b37e3e738b5494392318)
REM
REM compiler GCC version 4.9.2
REM options -cpp -iprefix /scratch/UCL/applications/gcc/4.9.2/bin/../lib/gcc/x86_64-unknown-linux-gnu/4.9.2/ -mtune=corei7 -march=x86-64 -g -O2
REM COMMAND_LINE
REM seed 1286605515 79698572 1787993905 -1870389155 1488763418 1891305027 -817202531 901828768 -946720323 -413269148 -1382804506 132930996
REM
REM Se 3|2.1|7|7|9|40:41:32(qc=5)
REM Ag 3|2.2|7|7|9|40U:50:41:42(qc=5)
REM 
CELL 1.54180    4.70547    4.70547   18.51269   90.00000   90.00000  120.00000
LATT -1
SFAC Se Ag 
Se     1 -0.2437938607957 -0.0420768963313  0.1408396052379 1.0
Se     1  0.0420768963313 -0.2017169644644  0.4741729385712 1.0
Se     1  0.2017169644644  0.2437938607957 -0.1924937280955 1.0
Se     1 -0.2956060823753  0.2158378628563 -0.3772767733779 1.0
Se     1 -0.2158378628563 -0.5114439452317 -0.0439434400445 1.0
Se     1  0.5114439452317  0.2956060823753  0.2893898932888 1.0
Ag     2  0.3790824526390  0.4693946904397 -0.4742115562715 1.0
Ag     2 -0.4693946904397 -0.0903122378007 -0.1408782229382 1.0
Ag     2  0.0903122378007 -0.3790824526390  0.1924551103951 1.0
Ag     2  0.0512322816108 -0.0845047623452 -0.3660613076274 1.0
Ag     2  0.0845047623452  0.1357370439560 -0.0327279742940 1.0
Ag     2 -0.1357370439560 -0.0512322816108  0.3006053590393 1.0
Ag     2  0.2222323701356 -0.3985387860261  0.3557307829499 1.0
Ag     2  0.3985387860261 -0.3792288438384 -0.3109358837167 1.0
Ag     2  0.3792288438384 -0.2222323701355  0.0223974496166 1.0
Ag     2 -0.2899929008123  0.1286067154735  0.4488803824223 1.0
Ag     2 -0.1286067154735 -0.4185996162858 -0.2177862842443 1.0
Ag     2  0.4185996162858  0.2899929008123  0.1155470490890 1.0
END
