TITL 6Ag2Se-200724-184552-5c604e -0.4978 379.215208 -6.91978726E+004 0 0 18 (R3) n - 1
REM
REM Run started: Fri, 24 Jul 2020 22:01:33 +0100 in /scratch/scratch/uccabz1/launch_tmp/launcher_2020-07-24-17-45-50-768271
REM CASTEP 19.11| from code version Version unavailable
REM Functional Perdew Burke Ernzerhof Relativity Koelling-Harmon Dispersion off
REM Cut-off 300.0000 eV Grid scale 1.7500 Gmax 15.5288 1/A FBSC none
REM MP grid 2 2 2 Offset 0.000 0.000 0.000 No. kpts 2 Spacing 0.07
REM Total runtime: 12770.8 s
REM Overall efficiency: 84 %
REM
REM 6Ag2Se.cell (be4689b4cac7b37e3e738b5494392318)
REM
REM compiler GCC version 4.9.2
REM options -cpp -iprefix /scratch/UCL/applications/gcc/4.9.2/bin/../lib/gcc/x86_64-unknown-linux-gnu/4.9.2/ -mtune=corei7 -march=x86-64 -g -O2
REM COMMAND_LINE
REM seed -1043986445 1253992836 -1169404613 2146194549 1191966558 -1636576038 -840618384 2041242909 1487141166 -1727871015 -237307047 -1714046944
REM
REM Se 3|2.1|7|7|9|40:41:32(qc=5)
REM Ag 3|2.2|7|7|9|40U:50:41:42(qc=5)
REM 
CELL 1.54180    7.31516    7.31516    7.31516   97.87828   97.87828   97.87828
LATT -1
SFAC Se Ag 
Se     1  0.3284946597415 -0.4020615209685 -0.2796585042680 1.0
Se     1 -0.2796585042680  0.3284946597415 -0.4020615209685 1.0
Se     1 -0.4020615209685 -0.2796585042680  0.3284946597415 1.0
Se     1  0.3826192637678  0.1537977309235 -0.0896637200295 1.0
Se     1 -0.0896637200295  0.3826192637678  0.1537977309235 1.0
Se     1  0.1537977309235 -0.0896637200295  0.3826192637678 1.0
Ag     2 -0.1154419670635 -0.1901723762873  0.0949925478741 1.0
Ag     2  0.0949925478741 -0.1154419670635 -0.1901723762873 1.0
Ag     2 -0.1901723762873  0.0949925478741 -0.1154419670635 1.0
Ag     2  0.2632400029731 -0.4756056311820  0.2560502180139 1.0
Ag     2  0.2560502180139  0.2632400029731 -0.4756056311820 1.0
Ag     2 -0.4756056311820  0.2560502180139  0.2632400029731 1.0
Ag     2 -0.4926739082505 -0.1194374695043  0.0459154579847 1.0
Ag     2  0.0459154579847 -0.4926739082505 -0.1194374695043 1.0
Ag     2 -0.1194374695043  0.0459154579847 -0.4926739082505 1.0
Ag     2  0.4972252335775 -0.0617481264233 -0.3839380908791 1.0
Ag     2 -0.3839380908791  0.4972252335775 -0.0617481264233 1.0
Ag     2 -0.0617481264233 -0.3839380908791  0.4972252335775 1.0
END
