TITL 6Ag2Se-200724-120911-236640 -0.0382 399.294237 -6.91986320E+004 0 0 18 (Ima2) n - 1
REM
REM Run started: Fri, 24 Jul 2020 16:58:58 +0100 in /scratch/scratch/uccabz1/launch_tmp/launcher_2020-07-24-12-36-44-373375
REM CASTEP 19.11| from code version Version unavailable
REM Functional Perdew Burke Ernzerhof Relativity Koelling-Harmon Dispersion off
REM Cut-off 300.0000 eV Grid scale 1.7500 Gmax 15.5288 1/A FBSC none
REM MP grid 3 2 2 Offset 0.000 0.000 0.000 No. kpts 5 Spacing 0.07
REM Total runtime: 12262 s
REM Overall efficiency: 96.4444 %
REM
REM
REM
REM compiler GCC version 4.8.5 20150623 (Red Hat 4.8.5-39)
REM options -cpp -mtune=generic -march=x86-64 -g -Og
REM COMMAND_LINE
REM seed -375734306 1935337605 206381651 -1194046615 1623824809 1773375885 -904487276 -462646335 1287520902 1129044565 2063591658 254639770
REM
REM Se 3|2.1|7|7|9|40:41:32(qc=5)
REM Ag 3|2.2|7|7|9|40U:50:41:42(qc=5)
REM 
CELL 1.54180    6.96675    8.48859    8.48859   65.72847   65.77253   65.77253
LATT -1
SFAC Se Ag 
Se     1 -0.1749902486805 -0.0853450474492 -0.0395672805176 1.0
Se     1  0.1749902486805  0.0395672805176  0.0853450474492 1.0
Se     1 -0.2000974233527  0.4146549525508  0.4604327194824 1.0
Se     1  0.2000974233527 -0.4604327194824 -0.4146549525508 1.0
Se     1  0.4558779486436 -0.4836881331543 -0.0163118668457 1.0
Se     1 -0.4558779486436  0.0163118668457  0.4836881331543 1.0
Ag     2 -0.2346421443878  0.0910885253868 -0.3575732697297 1.0
Ag     2  0.2346421443878  0.3575732697297 -0.0910885253868 1.0
Ag     2  0.0011268887307 -0.4089114746132  0.1424267302703 1.0
Ag     2 -0.0011268887307 -0.1424267302703  0.4089114746132 1.0
Ag     2 -0.1753393263450  0.2614905820369 -0.0019462230406 1.0
Ag     2  0.1753393263450  0.0019462230406 -0.2614905820369 1.0
Ag     2  0.4157949673487 -0.2385094179631  0.4980537769594 1.0
Ag     2 -0.4157949673487 -0.4980537769594  0.2385094179631 1.0
Ag     2  0.2308579668103  0.3245485053938  0.4067762055020 1.0
Ag     2 -0.2308579668103 -0.4067762055020 -0.3245485053938 1.0
Ag     2  0.5378173222939 -0.1754514946062 -0.0932237944980 1.0
Ag     2 -0.5378173222939  0.0932237944980  0.1754514946062 1.0
END
