TITL 6Ag2Se-200724-215550-9e4ba2 0.0586 386.109701 -6.91982316E+004 0 0 18 (P63) n - 1
REM
REM Run started: Fri, 24 Jul 2020 22:23:26 +0100 in /scratch/scratch/uccabz1/launch_tmp/launcher_2020-07-24-20-55-48-055030
REM CASTEP 19.11| from code version Version unavailable
REM Functional Perdew Burke Ernzerhof Relativity Koelling-Harmon Dispersion off
REM Cut-off 300.0000 eV Grid scale 1.7500 Gmax 15.5288 1/A FBSC none
REM MP grid 3 3 2 Offset 0.000 0.000 0.000 No. kpts 3 Spacing 0.07
REM Total runtime: 1850.18 s
REM Overall efficiency: 79.4 %
REM
REM 6Ag2Se.cell (be4689b4cac7b37e3e738b5494392318)
REM
REM compiler GCC version 4.9.2
REM options -cpp -iprefix /scratch/UCL/applications/gcc/4.9.2/bin/../lib/gcc/x86_64-unknown-linux-gnu/4.9.2/ -mtune=corei7 -march=x86-64 -g -O2
REM COMMAND_LINE
REM seed -774837866 1311046677 22635845 -631572969 1902300080 1371719342 -817870083 1779247420 332888412 2141360982 1118947927 1660635151
REM
REM Se 3|2.1|7|7|9|40:41:32(qc=5)
REM Ag 3|2.2|7|7|9|40U:50:41:42(qc=5)
REM 
CELL 1.54180    7.39899    7.39899    8.14396   90.00000   90.00000  120.00000
LATT -1
SFAC Se Ag 
Se     1 -0.0185509960748 -0.3750956438533 -0.3723786459519 1.0
Se     1 -0.3565447477785  0.0185509960748 -0.3723786459519 1.0
Se     1  0.3750956438533  0.3565447477785 -0.3723786459519 1.0
Se     1  0.0232113477785  0.3147824039252  0.1276213540481 1.0
Se     1  0.2915709561467 -0.0232113477785  0.1276213540481 1.0
Se     1 -0.3147824039252 -0.2915709561467  0.1276213540481 1.0
Ag     2  0.0020140417364  0.2419574875213  0.4618326156338 1.0
Ag     2  0.2399433457849 -0.0020140417364  0.4618326156338 1.0
Ag     2 -0.2419574875213 -0.2399433457849  0.4618326156338 1.0
Ag     2  0.4267232542150  0.3353474417364 -0.0381673843662 1.0
Ag     2 -0.0913759124787 -0.4267232542150 -0.0381673843662 1.0
Ag     2 -0.3353474417364  0.0913759124787 -0.0381673843662 1.0
Ag     2  0.4004656130446  0.4009595121685  0.3013398303181 1.0
Ag     2  0.0004937991239 -0.4004656130446  0.3013398303181 1.0
Ag     2 -0.4009595121685 -0.0004937991239  0.3013398303181 1.0
Ag     2  0.0676261121685  0.3338271991239 -0.1986601696819 1.0
Ag     2  0.2662009869554 -0.0676261121685 -0.1986601696819 1.0
Ag     2 -0.3338271991239 -0.2662009869554 -0.1986601696819 1.0
END
