TITL 6Ag2Se-200724-104525-2201f2 0.0794 371.058616 -6.91976380E+004 0 0 18 (C2) n - 1
REM
REM Run started: Fri, 24 Jul 2020 18:04:16 +0100 in /scratch/scratch/uccabz1/launch_tmp/launcher_2020-07-24-12-36-38-352672
REM CASTEP 19.11| from code version Version unavailable
REM Functional Perdew Burke Ernzerhof Relativity Koelling-Harmon Dispersion off
REM Cut-off 300.0000 eV Grid scale 1.7500 Gmax 15.5288 1/A FBSC none
REM MP grid 4 4 1 Offset 0.000 0.000 0.000 No. kpts 8 Spacing 0.07
REM Total runtime: 16907.2 s
REM Overall efficiency: 98.125 %
REM
REM
REM
REM compiler GCC version 4.8.5 20150623 (Red Hat 4.8.5-39)
REM options -cpp -mtune=generic -march=x86-64 -g -Og
REM COMMAND_LINE
REM seed -1087730318 -1244726923 1330745929 -1396264577 -1591164366 -1674351913 -777175234 -1575690918 -247389747 -918741577 1393399364 -1299683980
REM
REM Se 3|2.1|7|7|9|40:41:32(qc=5)
REM Ag 3|2.2|7|7|9|40U:50:41:42(qc=5)
REM 
CELL 1.54180    4.04780    4.97314   20.25491   87.98944   85.05452   65.98557
LATT -1
SFAC Se Ag 
Se     1  0.1474489330052  0.0330193188123 -0.2760462548228 1.0
Se     1 -0.1804682518175  0.0330193188123  0.2760462548228 1.0
Se     1  0.5115488723079 -0.4826027138227  0.4273306674351 1.0
Se     1 -0.0289461584851 -0.4826027138227 -0.4273306674351 1.0
Se     1  0.4855096471155 -0.3636514794345 -0.1143857468523 1.0
Se     1 -0.1218581676810 -0.3636514794345  0.1143857468523 1.0
Ag     2  0.2541775710956 -0.0648446255261  0.0545171783255 1.0
Ag     2 -0.1893329455695 -0.0648446255261 -0.0545171783255 1.0
Ag     2  0.1064012280957  0.3352876888659 -0.0531523294694 1.0
Ag     2 -0.4416889169616  0.3352876888659  0.0531523294694 1.0
Ag     2 -0.1553938068900 -0.3726082657148 -0.2451743057649 1.0
Ag     2  0.5280020726049 -0.3726082657148  0.2451743057649 1.0
Ag     2 -0.3134500154399  0.0863923300530 -0.4497319489377 1.0
Ag     2  0.2270576853869  0.0863923300530  0.4497319489377 1.0
Ag     2  0.2767886859812  0.2097695131545  0.1937155106106 1.0
Ag     2 -0.4865581991357  0.2097695131545 -0.1937155106106 1.0
Ag     2  0.4517333068831  0.4901392336124 -0.3418771786163 1.0
Ag     2  0.0581274595045  0.4901392336124  0.3418771786163 1.0
END
