TITL 6Ag2Se-200725-110907-fd42d0 -0.0057 364.667141 -6.91984670E+004 0 0 18 (Cc) n - 1
REM
REM Run started: Sat, 25 Jul 2020 17:30:49 +0100 in /scratch/scratch/uccabz1/launch_tmp/launcher_2020-07-25-14-20-52-741225
REM CASTEP 19.11| from code version Version unavailable
REM Functional Perdew Burke Ernzerhof Relativity Koelling-Harmon Dispersion off
REM Cut-off 300.0000 eV Grid scale 1.7500 Gmax 15.5288 1/A FBSC none
REM MP grid 3 3 2 Offset 0.000 0.000 0.000 No. kpts 6 Spacing 0.07
REM Total runtime: 7967.26 s
REM Overall efficiency: 96.4286 %
REM
REM
REM
REM compiler GCC version 4.9.2
REM options -cpp -iprefix /scratch/UCL/applications/gcc/4.9.2/bin/../lib/gcc/x86_64-unknown-linux-gnu/4.9.2/ -mtune=corei7 -march=x86-64 -g -O2
REM COMMAND_LINE
REM seed -440924807 -992688494 -668790041 -776400119 -2005773509 -466269881 1285140998 -815689177 529451849 148801985 -1075791830 -678911844
REM
REM Se 3|2.1|7|7|9|40:41:32(qc=5)
REM Ag 3|2.2|7|7|9|40U:50:41:42(qc=5)
REM 
CELL 1.54180    7.23805    7.23805    9.15824   60.70369   60.70369   74.49589
LATT -1
SFAC Se Ag 
Se     1 -0.4187334700611  0.3885554284412  0.3125069331206 1.0
Se     1 -0.1114445715589  0.0812665299389 -0.1874930668794 1.0
Se     1  0.2209439057390 -0.5560523404888 -0.2730642960308 1.0
Se     1 -0.0560523404888 -0.2790560942610  0.2269357039692 1.0
Se     1 -0.3955840339774 -0.1635212208260 -0.3620908101605 1.0
Se     1  0.3364787791740  0.1044159660226  0.1379091898395 1.0
Ag     2 -0.4076652101192  0.2325055263914 -0.3187809340506 1.0
Ag     2 -0.2674944736086  0.0923347898808  0.1812190659494 1.0
Ag     2  0.2741963329649  0.0932160369819 -0.4776387498170 1.0
Ag     2 -0.4067839630181 -0.2258036670351  0.0223612501830 1.0
Ag     2  0.2602612345342 -0.1049251346993 -0.0964136678517 1.0
Ag     2  0.3950748653007 -0.2397387654658  0.4035863321483 1.0
Ag     2 -0.0603509658926  0.1442084049588  0.3751855320150 1.0
Ag     2 -0.3557915950412  0.4396490341074 -0.1248144679850 1.0
Ag     2  0.2797923752752  0.4648017912683  0.1796831713122 1.0
Ag     2 -0.0351982087317 -0.2202076247248 -0.3203168286878 1.0
Ag     2 -0.0045949872656  0.4797593267752 -0.4698851785373 1.0
Ag     2 -0.0202406732248 -0.5045949872656  0.0301148214627 1.0
END
