TITL 6Ag2Se-200724-193249-42ba9c -0.0424 361.117186 -6.91988408E+004 0 0 18 (Pc) n - 1
REM
REM Run started: Sat, 25 Jul 2020 00:41:22 +0100 in /scratch/scratch/uccabz1/launch_tmp/launcher_2020-07-24-18-32-48-047958
REM CASTEP 19.11| from code version Version unavailable
REM Functional Perdew Burke Ernzerhof Relativity Koelling-Harmon Dispersion off
REM Cut-off 300.0000 eV Grid scale 1.7500 Gmax 15.5288 1/A FBSC none
REM MP grid 3 2 2 Offset 0.000 0.000 0.000 No. kpts 3 Spacing 0.07
REM Total runtime: 19689.8 s
REM Overall efficiency: 92.9167 %
REM
REM 6Ag2Se.cell (be4689b4cac7b37e3e738b5494392318)
REM
REM compiler GCC version 4.9.2
REM options -cpp -iprefix /scratch/UCL/applications/gcc/4.9.2/bin/../lib/gcc/x86_64-unknown-linux-gnu/4.9.2/ -mtune=corei7 -march=x86-64 -g -O2
REM COMMAND_LINE
REM seed -42030559 -2024434218 -1551462341 -2000736667 469935537 -1403294936 697907464 -226313932 -700604318 -632492758 -2003592120 -1039335882
REM
REM Se 3|2.1|7|7|9|40:41:32(qc=5)
REM Ag 3|2.2|7|7|9|40U:50:41:42(qc=5)
REM 
CELL 1.54180    5.07543    7.25527   10.13611   90.00000  104.64764   90.00000
LATT -1
SFAC Se Ag 
Se     1  0.0634688527651  0.2102976237993 -0.2201025259377 1.0
Se     1 -0.4365311472349 -0.2102976237993 -0.2201025259377 1.0
Se     1  0.4052926111578  0.2672449906095 -0.5007417461222 1.0
Se     1 -0.0947073888422 -0.2672449906095 -0.5007417461222 1.0
Se     1  0.4153607754065 -0.2893727989337  0.1507601363626 1.0
Se     1 -0.0846392245935  0.2893727989337  0.1507601363626 1.0
Ag     2 -0.3200583886541  0.0865949870022 -0.0621223320157 1.0
Ag     2  0.1799416113459 -0.0865949870022 -0.0621223320157 1.0
Ag     2 -0.4254004587858  0.4032454503725 -0.2481030984238 1.0
Ag     2  0.0745995412142 -0.4032454503725 -0.2481030984238 1.0
Ag     2  0.4281096049967  0.0953113899722  0.2213637722006 1.0
Ag     2 -0.0718903950033 -0.0953113899722  0.2213637722006 1.0
Ag     2  0.2003010730899 -0.4213750303338  0.3491774771761 1.0
Ag     2 -0.2996989269101  0.4213750303338  0.3491774771761 1.0
Ag     2 -0.1349928638985 -0.3898979993687 -0.0015247282525 1.0
Ag     2  0.3650071361015  0.3898979993687 -0.0015247282525 1.0
Ag     2  0.4039570939223 -0.1019372452195  0.5032688450125 1.0
Ag     2 -0.0960429060777  0.1019372452195  0.5032688450125 1.0
END
