TITL 6Ag2Se-200725-085810-5ed3e4 0.0330 350.021114 -6.91975902E+004 0 0 18 (Cc) n - 1
REM
REM Run started: Sat, 25 Jul 2020 12:39:12 +0100 in /scratch/scratch/uccabz1/launch_tmp/launcher_2020-07-25-07-58-08-113928
REM CASTEP 19.11| from code version Version unavailable
REM Functional Perdew Burke Ernzerhof Relativity Koelling-Harmon Dispersion off
REM Cut-off 300.0000 eV Grid scale 1.7500 Gmax 15.5288 1/A FBSC none
REM MP grid 3 2 2 Offset 0.000 0.000 0.000 No. kpts 5 Spacing 0.07
REM Total runtime: 13753.9 s
REM Overall efficiency: 97.6 %
REM
REM 6Ag2Se.cell (be4689b4cac7b37e3e738b5494392318)
REM
REM compiler GCC version 4.9.2
REM options -cpp -iprefix /scratch/UCL/applications/gcc/4.9.2/bin/../lib/gcc/x86_64-unknown-linux-gnu/4.9.2/ -mtune=corei7 -march=x86-64 -g -O2
REM COMMAND_LINE
REM seed 1581250431 -1871365005 -286211614 -157056099 -1372320756 1368953034 511252030 -583945361 993430428 1879587460 1657637313 -2029613526
REM
REM Se 3|2.1|7|7|9|40:41:32(qc=5)
REM Ag 3|2.2|7|7|9|40U:50:41:42(qc=5)
REM 
CELL 1.54180    4.97037    8.41521    8.41521   95.68155   91.39397   91.39397
LATT -1
SFAC Se Ag 
Se     1 -0.5038515520351 -0.0921006575557  0.1739007202071 1.0
Se     1 -0.0038515520351  0.1739007202071 -0.0921006575557 1.0
Se     1 -0.0117030594984 -0.3267092293253  0.4022997533211 1.0
Se     1  0.4882969405016  0.4022997533211 -0.3267092293253 1.0
Se     1 -0.5035756101203  0.0065006171436 -0.4342895955277 1.0
Se     1 -0.0035756101203 -0.4342895955277  0.0065006171436 1.0
Ag     2 -0.0057269548543 -0.1256787321200 -0.0126969574255 1.0
Ag     2  0.4942730451457 -0.0126969574255 -0.1256787321200 1.0
Ag     2 -0.0024382523441  0.0207232843065  0.3093465796855 1.0
Ag     2 -0.5024382523441  0.3093465796855  0.0207232843065 1.0
Ag     2 -0.5045490242869 -0.3016293708130 -0.4118490562996 1.0
Ag     2 -0.0045490242869 -0.4118490562996 -0.3016293708130 1.0
Ag     2  0.4834034624547 -0.4291914521375  0.2615785115876 1.0
Ag     2 -0.0165965375453  0.2615785115876 -0.4291914521375 1.0
Ag     2 -0.0031695132600 -0.0721001060895 -0.3508298943600 1.0
Ag     2 -0.5031695132600 -0.3508298943600 -0.0721001060895 1.0
Ag     2 -0.0133271960556  0.3544894076673  0.2399208777350 1.0
Ag     2  0.4866728039444  0.2399208777350  0.3544894076673 1.0
END
