TITL 6Ag2Se-200724-233605-773324 -0.0386 352.012058 -6.91979408E+004 0 0 18 (R-3) n - 1
REM
REM Run started: Sat, 25 Jul 2020 00:51:44 +0100 in /scratch/scratch/uccabz1/launch_tmp/launcher_2020-07-24-22-36-03-443290
REM CASTEP 19.11| from code version Version unavailable
REM Functional Perdew Burke Ernzerhof Relativity Koelling-Harmon Dispersion off
REM Cut-off 300.0000 eV Grid scale 1.7500 Gmax 15.5288 1/A FBSC none
REM MP grid 3 3 3 Offset 0.000 0.000 0.000 No. kpts 6 Spacing 0.07
REM Total runtime: 4682.72 s
REM Overall efficiency: 96.3333 %
REM
REM 6Ag2Se.cell (be4689b4cac7b37e3e738b5494392318)
REM
REM compiler GCC version 4.9.2
REM options -cpp -iprefix /scratch/UCL/applications/gcc/4.9.2/bin/../lib/gcc/x86_64-unknown-linux-gnu/4.9.2/ -mtune=corei7 -march=x86-64 -g -O2
REM COMMAND_LINE
REM seed 1094360674 113193830 -1545053751 -761615610 -506669148 -1087248416 -2046851016 -74703847 382078092 -2015693355 65784246 -109788488
REM
REM Se 3|2.1|7|7|9|40:41:32(qc=5)
REM Ag 3|2.2|7|7|9|40U:50:41:42(qc=5)
REM 
CELL 1.54180    7.19478    7.19478    7.19478   78.30107   78.30107   78.30107
LATT -1
SFAC Se Ag 
Se     1 -0.2897599888001 -0.1856419499146  0.1574925660199 1.0
Se     1  0.1574925660199 -0.2897599888001 -0.1856419499146 1.0
Se     1 -0.1856419499146  0.1574925660199 -0.2897599888001 1.0
Se     1  0.1633737499146 -0.1797607660199  0.2674917888001 1.0
Se     1  0.2674917888001  0.1633737499146 -0.1797607660199 1.0
Se     1 -0.1797607660199  0.2674917888001  0.1633737499146 1.0
Ag     2 -0.4684893440537  0.1866317911000  0.4913458936519 1.0
Ag     2  0.4913458936519 -0.4684893440537  0.1866317911000 1.0
Ag     2  0.1866317911000  0.4913458936519 -0.4684893440537 1.0
Ag     2  0.4462211440537 -0.2088999911000 -0.5136140936519 1.0
Ag     2 -0.5136140936519  0.4462211440537 -0.2088999911000 1.0
Ag     2 -0.2088999911000 -0.5136140936519  0.4462211440537 1.0
Ag     2 -0.1630419905941 -0.1505792436338 -0.4750012858743 1.0
Ag     2 -0.4750012858743 -0.1630419905941 -0.1505792436338 1.0
Ag     2 -0.1505792436338 -0.4750012858743 -0.1630419905941 1.0
Ag     2  0.1283110436338  0.4527330858743  0.1407737905941 1.0
Ag     2  0.1407737905941  0.1283110436338  0.4527330858743 1.0
Ag     2  0.4527330858743  0.1407737905941  0.1283110436338 1.0
END
