TITL 6Ag2Se-200725-103954-fe18a5 0.0188 367.768303 -6.91972014E+004 0 0 18 (P4/m) n - 1
REM
REM Run started: Sat, 25 Jul 2020 11:19:58 +0100 in /scratch/scratch/uccabz1/launch_tmp/launcher_2020-07-25-09-39-51-355232
REM CASTEP 19.11| from code version Version unavailable
REM Functional Perdew Burke Ernzerhof Relativity Koelling-Harmon Dispersion off
REM Cut-off 300.0000 eV Grid scale 1.7500 Gmax 15.5288 1/A FBSC none
REM MP grid 4 2 2 Offset 0.000 0.000 0.000 No. kpts 2 Spacing 0.07
REM Total runtime: 2535 s
REM Overall efficiency: 77.7143 %
REM
REM 6Ag2Se.cell (be4689b4cac7b37e3e738b5494392318)
REM
REM compiler GCC version 4.9.2
REM options -cpp -iprefix /scratch/UCL/applications/gcc/4.9.2/bin/../lib/gcc/x86_64-unknown-linux-gnu/4.9.2/ -mtune=corei7 -march=x86-64 -g -O2
REM COMMAND_LINE
REM seed 867802605 -1892044012 -1605410372 870374967 436438858 -1969620753 703494780 -496333405 631138575 678213532 -603344700 -1810211030
REM
REM Se 3|2.1|7|7|9|40:41:32(qc=5)
REM Ag 3|2.2|7|7|9|40U:50:41:42(qc=5)
REM 
CELL 1.54180    4.23693    9.31669    9.31669   90.00000   90.00000   90.00000
LATT -1
SFAC Se Ag 
Se     1  0.1642243616371 -0.1964472680214  0.2167880260534 1.0
Se     1  0.1642243616371  0.1964472680214 -0.2167880260534 1.0
Se     1  0.1642243616371 -0.2167880260534 -0.1964472680214 1.0
Se     1  0.1642243616371  0.2167880260534  0.1964472680214 1.0
Se     1 -0.3454882958226 -0.5000000000000  0.0000000000000 1.0
Se     1 -0.3454882958226  0.0000000000000 -0.5000000000000 1.0
Ag     2  0.1541143607175  0.4875490189614 -0.1898142256358 1.0
Ag     2  0.1541143607175 -0.4875490189614  0.1898142256358 1.0
Ag     2  0.1541143607175  0.1898142256358  0.4875490189614 1.0
Ag     2  0.1541143607175 -0.1898142256358 -0.4875490189614 1.0
Ag     2 -0.3435244363486 -0.3443409606519  0.3563692759379 1.0
Ag     2 -0.3435244363486  0.3443409606519 -0.3563692759379 1.0
Ag     2 -0.3435244363486 -0.3563692759379 -0.3443409606519 1.0
Ag     2 -0.3435244363486  0.3563692759379  0.3443409606519 1.0
Ag     2 -0.3342715880948  0.0180398423048  0.2120006315874 1.0
Ag     2 -0.3342715880948 -0.0180398423048 -0.2120006315874 1.0
Ag     2 -0.3342715880948 -0.2120006315874  0.0180398423048 1.0
Ag     2 -0.3342715880948  0.2120006315874 -0.0180398423048 1.0
END
