TITL 6Ag2Se-200724-100357-27c98f 0.1143 360.315492 -6.91985475E+004 0 0 18 (Pba2) n - 1
REM
REM Run started: Fri, 24 Jul 2020 15:25:51 +0100 in /scratch/scratch/uccabz1/launch_tmp/launcher_2020-07-24-09-03-54-982622
REM CASTEP 19.11| from code version Version unavailable
REM Functional Perdew Burke Ernzerhof Relativity Koelling-Harmon Dispersion off
REM Cut-off 300.0000 eV Grid scale 1.7500 Gmax 15.5288 1/A FBSC none
REM MP grid 4 3 2 Offset 0.000 0.000 0.000 No. kpts 4 Spacing 0.07
REM Total runtime: 21428.3 s
REM Overall efficiency: 97.6667 %
REM
REM 6Ag2Se.cell (be4689b4cac7b37e3e738b5494392318)
REM
REM compiler GCC version 4.9.2
REM options -cpp -iprefix /scratch/UCL/applications/gcc/4.9.2/bin/../lib/gcc/x86_64-unknown-linux-gnu/4.9.2/ -mtune=corei7 -march=x86-64 -g -O2
REM COMMAND_LINE
REM seed -257046416 656273854 475023807 1211562589 -1390308321 1998612379 291786410 -1047289437 878780753 -1536840833 823222814 1273270889
REM
REM Se 3|2.1|7|7|9|40:41:32(qc=5)
REM Ag 3|2.2|7|7|9|40U:50:41:42(qc=5)
REM 
CELL 1.54180    4.43834    6.85966   11.83477   90.00000   90.00000   90.00000
LATT -1
SFAC Se Ag 
Se     1 -0.0296008421977 -0.4397277596732  0.3912688020250 1.0
Se     1  0.0296008421977 -0.4397277596732 -0.3912688020250 1.0
Se     1 -0.4703991578023 -0.4397277596732 -0.1087311979750 1.0
Se     1  0.4703991578023 -0.4397277596732  0.1087311979750 1.0
Se     1  0.0000000000000  0.0436884496794  0.0000000000000 1.0
Se     1 -0.5000000000000  0.0436884496794  0.5000000000000 1.0
Ag     2 -0.0221080242104  0.0671590729634  0.3453793855803 1.0
Ag     2  0.0221080242104  0.0671590729634 -0.3453793855803 1.0
Ag     2 -0.4778919757896  0.0671590729634 -0.1546206144197 1.0
Ag     2  0.4778919757896  0.0671590729634  0.1546206144197 1.0
Ag     2  0.0391085835937 -0.2191905646633 -0.1684941155265 1.0
Ag     2 -0.0391085835937 -0.2191905646633  0.1684941155265 1.0
Ag     2  0.4608914164063 -0.2191905646633  0.3315058844735 1.0
Ag     2 -0.4608914164063 -0.2191905646633 -0.3315058844735 1.0
Ag     2 -0.4668877835288  0.3403761765334 -0.3376279328897 1.0
Ag     2  0.4668877835288  0.3403761765334  0.3376279328897 1.0
Ag     2 -0.0331122164712  0.3403761765334  0.1623720671103 1.0
Ag     2  0.0331122164712  0.3403761765334 -0.1623720671103 1.0
END
