TITL Ag2Se-P2m-200928-133138-29afc5 0.0222 242.026776 -4.61166528E+004 0 0 12 (P2/m) n - 1
REM
REM Run started: Mon, 28 Sep 2020 15:08:52 +0100 in /lustre/scratch/uccabz1/launch_tmp/launcher_2020-09-28-12-31-36-887238
REM CASTEP 20.1 from code version af48c487+ pr-geom-scf-spinfix Tue Jun 2 15:39:59 2020 +0100
REM Functional PBE for solids (2008) Relativity Koelling-Harmon Dispersion off
REM Cut-off 340.0000 eV Grid scale 1.7500 Gmax 16.5316 1/A FBSC none
REM MP grid 3 3 2 Offset 0.000 0.000 0.000 No. kpts 6 Spacing 0.07
REM Total runtime: 5110.53 s
REM Overall efficiency: 94.2857 %
REM
REM
REM
REM compiler GCC version 4.9.2
REM options -cpp -iprefix /lustre/shared/ucl/apps/gcc/4.9.2/bin/../lib/gcc/x86_64-unknown-linux-gnu/4.9.2/ -mtune=corei7 -march=x86-64 -g -Og
REM COMMAND_LINE
REM seed 1454674552 2145612645 2020358136 1797203270 501098747 842736503 -721601823 -108305679 169663280 -1214484205 -1528845315 2063327067
REM
REM Se 3|2.1|7|7|9|40:41:32(qc=5)
REM Ag 3|2.2|7|7|9|40U:50:41:42(qc=5)
REM 
CELL 1.54180    5.43076    6.05143    7.76562   90.00000  108.49509   90.00000
LATT -1
SFAC Se Ag 
Se     1  0.3671585359378 -0.2496864854039  0.1857589061383 1.0
Se     1 -0.3671585359378 -0.2496864854039 -0.1857589061383 1.0
Se     1 -0.3671585359378  0.2496864854039 -0.1857589061383 1.0
Se     1  0.3671585359378  0.2496864854039  0.1857589061383 1.0
Ag     2  0.2481591387150 -0.2498230083629 -0.4994043034130 1.0
Ag     2 -0.2481591387150 -0.2498230083629  0.4994043034130 1.0
Ag     2 -0.2481591387150  0.2498230083629  0.4994043034130 1.0
Ag     2  0.2481591387150  0.2498230083629 -0.4994043034130 1.0
Ag     2 -0.1347206032438 -0.2518813349086  0.1716563964200 1.0
Ag     2  0.1347206032438 -0.2518813349086 -0.1716563964200 1.0
Ag     2  0.1347206032438  0.2518813349086 -0.1716563964200 1.0
Ag     2 -0.1347206032438  0.2518813349086  0.1716563964200 1.0
END
