TITL Ag2Se-P21c-200928-112619-18ceba -0.0413 251.691120 -4.61186073E+004 0 0 12 (P21/c) n - 1
REM
REM Run started: Mon, 28 Sep 2020 12:20:04 +0100 in /lustre/scratch/uccabz1/launch_tmp/launcher_2020-09-28-10-26-16-818161
REM CASTEP 20.1 from code version af48c487+ pr-geom-scf-spinfix Tue Jun 2 15:39:59 2020 +0100
REM Functional PBE for solids (2008) Relativity Koelling-Harmon Dispersion off
REM Cut-off 340.0000 eV Grid scale 1.7500 Gmax 16.5316 1/A FBSC none
REM MP grid 4 2 2 Offset 0.000 0.000 0.000 No. kpts 4 Spacing 0.07
REM Total runtime: 3348.43 s
REM Overall efficiency: 95 %
REM
REM
REM
REM compiler GCC version 4.9.2
REM options -cpp -iprefix /lustre/shared/ucl/apps/gcc/4.9.2/bin/../lib/gcc/x86_64-unknown-linux-gnu/4.9.2/ -mtune=corei7 -march=x86-64 -g -Og
REM COMMAND_LINE
REM seed -1719637963 -1694073974 -232845483 -131103970 504834023 1605577011 -1420494633 -406021756 -507393031 -274741085 1142575326 673476701
REM
REM Se 3|2.1|7|7|9|40:41:32(qc=5)
REM Ag 3|2.2|7|7|9|40U:50:41:42(qc=5)
REM 
CELL 1.54180    4.71747    7.23902    8.61525   90.00000  121.18689   90.00000
LATT -1
SFAC Se Ag 
Se     1 -0.2708213884781  0.2611608284017 -0.0127999657322 1.0
Se     1  0.2708213884781 -0.2388391715983  0.5127999657322 1.0
Se     1  0.2708213884781 -0.2611608284017  0.0127999657322 1.0
Se     1 -0.2708213884781  0.2388391715983 -0.5127999657322 1.0
Ag     2  0.4618130676596  0.0233377494728  0.2173629470833 1.0
Ag     2 -0.4618130676596 -0.4766622505272  0.2826370529167 1.0
Ag     2 -0.4618130676596 -0.0233377494728 -0.2173629470833 1.0
Ag     2  0.4618130676596  0.4766622505272 -0.2826370529167 1.0
Ag     2 -0.1009407452520 -0.2141446146522  0.1496271891442 1.0
Ag     2  0.1009407452520  0.2858553853478  0.3503728108558 1.0
Ag     2  0.1009407452520  0.2141446146522 -0.1496271891442 1.0
Ag     2 -0.1009407452520 -0.2858553853478 -0.3503728108558 1.0
END
