TITL Ag2Se-P21c-200928-112618-62621f -0.0442 233.065863 -4.61189130E+004 0 0 12 (P21/c) n - 1
REM
REM Run started: Mon, 28 Sep 2020 13:09:08 +0100 in /lustre/scratch/uccabz1/launch_tmp/launcher_2020-09-28-10-26-16-821643
REM CASTEP 20.1 from code version af48c487+ pr-geom-scf-spinfix Tue Jun 2 15:39:59 2020 +0100
REM Functional PBE for solids (2008) Relativity Koelling-Harmon Dispersion off
REM Cut-off 340.0000 eV Grid scale 1.7500 Gmax 16.5316 1/A FBSC none
REM MP grid 4 3 2 Offset 0.000 0.000 0.000 No. kpts 8 Spacing 0.07
REM Total runtime: 6209.05 s
REM Overall efficiency: 94.2727 %
REM
REM
REM
REM compiler GCC version 4.9.2
REM options -cpp -iprefix /lustre/shared/ucl/apps/gcc/4.9.2/bin/../lib/gcc/x86_64-unknown-linux-gnu/4.9.2/ -mtune=corei7 -march=x86-64 -g -Og
REM COMMAND_LINE
REM seed 1722289498 -1942353966 -27107231 2145874600 -404164084 1878827578 -2088902758 -1866972390 -1067302563 507850758 -1224537809 -476903044
REM
REM Se 3|2.1|7|7|9|40:41:32(qc=5)
REM Ag 3|2.2|7|7|9|40U:50:41:42(qc=5)
REM 
CELL 1.54180    4.18026    7.00161    8.45758   90.00000  109.69101   90.00000
LATT -1
SFAC Se Ag 
Se     1 -0.2700705973516  0.2212590292858 -0.0984859028960 1.0
Se     1  0.2700705973516 -0.2787409707142 -0.4015140971040 1.0
Se     1  0.2700705973516 -0.2212590292858  0.0984859028960 1.0
Se     1 -0.2700705973516  0.2787409707142  0.4015140971040 1.0
Ag     2  0.3374614801181  0.1253042833261 -0.4118290407564 1.0
Ag     2 -0.3374614801181 -0.3746957166739 -0.0881709592436 1.0
Ag     2 -0.3374614801181 -0.1253042833261  0.4118290407564 1.0
Ag     2  0.3374614801181  0.3746957166739  0.0881709592436 1.0
Ag     2  0.0257730964060  0.4257889984862 -0.2751450741706 1.0
Ag     2 -0.0257730964060 -0.0742110015138 -0.2248549258294 1.0
Ag     2 -0.0257730964060 -0.4257889984862  0.2751450741706 1.0
Ag     2  0.0257730964060  0.0742110015138  0.2248549258294 1.0
END
