TITL Ag2Se-P2m-200928-122628-5e351b 0.0007 241.674079 -4.61166493E+004 0 0 12 (P2/m) n - 1
REM
REM Run started: Mon, 28 Sep 2020 14:10:09 +0100 in /scratch/scratch/uccabz1/launch_tmp/launcher_2020-09-28-11-26-26-891434
REM CASTEP 19.11| from code version Version unavailable
REM Functional PBE for solids (2008) Relativity Koelling-Harmon Dispersion off
REM Cut-off 340.0000 eV Grid scale 1.7500 Gmax 16.5316 1/A FBSC none
REM MP grid 3 3 2 Offset 0.000 0.000 0.000 No. kpts 6 Spacing 0.07
REM Total runtime: 6271.27 s
REM Overall efficiency: 95.4286 %
REM
REM
REM
REM compiler GCC version 4.9.2
REM options -cpp -iprefix /scratch/UCL/applications/gcc/4.9.2/bin/../lib/gcc/x86_64-unknown-linux-gnu/4.9.2/ -mtune=corei7 -march=x86-64 -g -O2
REM COMMAND_LINE
REM seed 488517684 -1081249102 842001862 35975277 1662998699 -1894712342 -1594135308 -1712305453 -6016242 763868861 -1386915353 -72626778
REM
REM Se 3|2.1|7|7|9|40:41:32(qc=5)
REM Ag 3|2.2|7|7|9|40U:50:41:42(qc=5)
REM 
CELL 1.54180    5.42627    6.05880    7.71355   90.00000  107.63821   90.00000
LATT -1
SFAC Se Ag 
Se     1  0.1252605034717  0.2503899816307 -0.1866347775832 1.0
Se     1 -0.1252605034717  0.2503899816307  0.1866347775832 1.0
Se     1 -0.1252605034717 -0.2503899816307  0.1866347775832 1.0
Se     1  0.1252605034717 -0.2503899816307 -0.1866347775832 1.0
Ag     2  0.3723909591580  0.2499257345546  0.1682889411212 1.0
Ag     2 -0.3723909591580  0.2499257345546 -0.1682889411212 1.0
Ag     2 -0.3723909591580 -0.2499257345546 -0.1682889411212 1.0
Ag     2  0.3723909591580 -0.2499257345546  0.1682889411212 1.0
Ag     2  0.2527588513536  0.2501221643911  0.5007694989523 1.0
Ag     2 -0.2527588513536  0.2501221643911 -0.5007694989523 1.0
Ag     2 -0.2527588513536 -0.2501221643911 -0.5007694989523 1.0
Ag     2  0.2527588513536 -0.2501221643911  0.5007694989523 1.0
END
