TITL Ag2Se-P21c-200928-093301-62b435 0.0362 229.070449 -4.61188910E+004 0 0 12 (P21/c) n - 1
REM
REM Run started: Mon, 28 Sep 2020 10:36:55 +0100 in /lustre/scratch/uccabz1/launch_tmp/launcher_2020-09-28-08-32-58-533070
REM CASTEP 20.1 from code version af48c487+ pr-geom-scf-spinfix Tue Jun 2 15:39:59 2020 +0100
REM Functional PBE for solids (2008) Relativity Koelling-Harmon Dispersion off
REM Cut-off 340.0000 eV Grid scale 1.7500 Gmax 16.5316 1/A FBSC none
REM MP grid 4 2 3 Offset 0.000 0.000 0.000 No. kpts 6 Spacing 0.07
REM Total runtime: 3878.13 s
REM Overall efficiency: 92.75 %
REM
REM
REM
REM compiler GCC version 4.9.2
REM options -cpp -iprefix /lustre/shared/ucl/apps/gcc/4.9.2/bin/../lib/gcc/x86_64-unknown-linux-gnu/4.9.2/ -mtune=corei7 -march=x86-64 -g -Og
REM COMMAND_LINE
REM seed 1509234399 1897842938 1745796668 -1500207010 604527261 2106822737 -808453708 -1867663130 216882400 761857232 1502631839 -1665122832
REM
REM Se 3|2.1|7|7|9|40:41:32(qc=5)
REM Ag 3|2.2|7|7|9|40U:50:41:42(qc=5)
REM 
CELL 1.54180    4.43247    7.50611    6.99806   90.00000  100.30966   90.00000
LATT -1
SFAC Se Ag 
Se     1  0.1821865790922  0.3822360224473 -0.2756173158530 1.0
Se     1 -0.1821865790922 -0.1177639775527 -0.2243826841470 1.0
Se     1 -0.1821865790922 -0.3822360224473  0.2756173158530 1.0
Se     1  0.1821865790922  0.1177639775527  0.2243826841470 1.0
Ag     2  0.2768118906243  0.4584993867166  0.1238222612268 1.0
Ag     2 -0.2768118906243 -0.0415006132834  0.3761777387732 1.0
Ag     2 -0.2768118906243 -0.4584993867166 -0.1238222612268 1.0
Ag     2  0.2768118906243  0.0415006132834 -0.3761777387732 1.0
Ag     2  0.3625982991348 -0.3256810824882 -0.4756732815435 1.0
Ag     2 -0.3625982991348  0.1743189175118 -0.0243267184565 1.0
Ag     2 -0.3625982991348  0.3256810824882  0.4756732815435 1.0
Ag     2  0.3625982991348 -0.1743189175118  0.0243267184565 1.0
END
