TITL Ag2Se-P2m-200928-130737-1214a5 -0.0359 243.009659 -4.61166543E+004 0 0 12 (P2/m) n - 1
REM
REM Run started: Mon, 28 Sep 2020 14:17:34 +0100 in /scratch/scratch/uccabz1/launch_tmp/launcher_2020-09-28-12-07-33-931372
REM CASTEP 19.11| from code version Version unavailable
REM Functional PBE for solids (2008) Relativity Koelling-Harmon Dispersion off
REM Cut-off 340.0000 eV Grid scale 1.7500 Gmax 16.5316 1/A FBSC none
REM MP grid 3 3 2 Offset 0.000 0.000 0.000 No. kpts 6 Spacing 0.07
REM Total runtime: 4320.74 s
REM Overall efficiency: 96 %
REM
REM
REM
REM compiler GCC version 4.9.2
REM options -cpp -iprefix /scratch/UCL/applications/gcc/4.9.2/bin/../lib/gcc/x86_64-unknown-linux-gnu/4.9.2/ -mtune=corei7 -march=x86-64 -g -O2
REM COMMAND_LINE
REM seed 1992235420 -1657358935 2080974447 1592487201 -739710720 509654071 -560058204 -874292680 -1544973886 291748123 -1022833390 -2052331059
REM
REM Se 3|2.1|7|7|9|40:41:32(qc=5)
REM Ag 3|2.2|7|7|9|40U:50:41:42(qc=5)
REM 
CELL 1.54180    5.43293    6.08432    7.75108   90.00000  108.47702   90.00000
LATT -1
SFAC Se Ag 
Se     1 -0.1330331143249 -0.2498359388691 -0.3138891860364 1.0
Se     1  0.1330331143249 -0.2498359388691  0.3138891860364 1.0
Se     1  0.1330331143249  0.2498359388691  0.3138891860364 1.0
Se     1 -0.1330331143249  0.2498359388691 -0.3138891860364 1.0
Ag     2  0.2523968519043 -0.2518540071714 -0.0002026456628 1.0
Ag     2 -0.2523968519043 -0.2518540071714  0.0002026456628 1.0
Ag     2 -0.2523968519043  0.2518540071714  0.0002026456628 1.0
Ag     2  0.2523968519043  0.2518540071714 -0.0002026456628 1.0
Ag     2  0.3649651180475 -0.2481633835009 -0.3290881228621 1.0
Ag     2 -0.3649651180475 -0.2481633835009  0.3290881228621 1.0
Ag     2 -0.3649651180475  0.2481633835009  0.3290881228621 1.0
Ag     2  0.3649651180475  0.2481633835009 -0.3290881228621 1.0
END
