TITL Ag2Se-P21c-200928-121252-aace21 0.0053 236.494469 -4.61189141E+004 0 0 12 (P21/c) n - 1
REM
REM Run started: Mon, 28 Sep 2020 13:45:01 +0100 in /lustre/scratch/uccabz1/launch_tmp/launcher_2020-09-28-11-12-51-392824
REM CASTEP 20.1 from code version af48c487+ pr-geom-scf-spinfix Tue Jun 2 15:39:59 2020 +0100
REM Functional PBE for solids (2008) Relativity Koelling-Harmon Dispersion off
REM Cut-off 340.0000 eV Grid scale 1.7500 Gmax 16.5316 1/A FBSC none
REM MP grid 4 3 2 Offset 0.000 0.000 0.000 No. kpts 8 Spacing 0.07
REM Total runtime: 5572.6 s
REM Overall efficiency: 94.125 %
REM
REM
REM
REM compiler GCC version 4.9.2
REM options -cpp -iprefix /lustre/shared/ucl/apps/gcc/4.9.2/bin/../lib/gcc/x86_64-unknown-linux-gnu/4.9.2/ -mtune=corei7 -march=x86-64 -g -Og
REM COMMAND_LINE
REM seed -1355252060 -1412828295 867208239 -911923269 -1325526137 -908595086 27227454 58454286 -1089848050 1306855129 1214147353 1902037328
REM
REM Se 3|2.1|7|7|9|40:41:32(qc=5)
REM Ag 3|2.2|7|7|9|40U:50:41:42(qc=5)
REM 
CELL 1.54180    4.17854    6.86922    8.51242   90.00000  104.55364   90.00000
LATT -1
SFAC Se Ag 
Se     1  0.2357242831953  0.2266216305083  0.3671812529509 1.0
Se     1 -0.2357242831953 -0.2733783694917  0.1328187470491 1.0
Se     1 -0.2357242831953 -0.2266216305083 -0.3671812529509 1.0
Se     1  0.2357242831953  0.2733783694917 -0.1328187470491 1.0
Ag     2 -0.3161902739524 -0.0032726261312 -0.1237330564305 1.0
Ag     2  0.3161902739524 -0.5032726261312 -0.3762669435695 1.0
Ag     2  0.3161902739524  0.0032726261312  0.1237330564305 1.0
Ag     2 -0.3161902739524  0.5032726261312  0.3762669435695 1.0
Ag     2 -0.1542911972027  0.1620562498118 -0.4201000581146 1.0
Ag     2  0.1542911972027 -0.3379437501882 -0.0798999418854 1.0
Ag     2  0.1542911972027 -0.1620562498118  0.4201000581146 1.0
Ag     2 -0.1542911972027  0.3379437501882  0.0798999418854 1.0
END
