TITL Ag2Se-P2m-200928-125154-c2bbb1 0.0611 241.623904 -4.61166444E+004 0 0 12 (P2/m) n - 1
REM
REM Run started: Mon, 28 Sep 2020 16:29:28 +0100 in /lustre/scratch/uccabz1/launch_tmp/launcher_2020-09-28-11-51-52-505975
REM CASTEP 20.1 from code version af48c487+ pr-geom-scf-spinfix Tue Jun 2 15:39:59 2020 +0100
REM Functional PBE for solids (2008) Relativity Koelling-Harmon Dispersion off
REM Cut-off 340.0000 eV Grid scale 1.7500 Gmax 16.5316 1/A FBSC none
REM MP grid 3 3 2 Offset 0.000 0.000 0.000 No. kpts 6 Spacing 0.07
REM Total runtime: 13058.7 s
REM Overall efficiency: 97 %
REM
REM
REM
REM compiler GCC version 4.9.2
REM options -cpp -iprefix /lustre/shared/ucl/apps/gcc/4.9.2/bin/../lib/gcc/x86_64-unknown-linux-gnu/4.9.2/ -mtune=corei7 -march=x86-64 -g -Og
REM COMMAND_LINE
REM seed 339148933 -142553073 1761219147 61145552 91843532 557337434 757953788 -1517234814 807027106 1407868863 -1057317231 131659584
REM
REM Se 3|2.1|7|7|9|40:41:32(qc=5)
REM Ag 3|2.2|7|7|9|40U:50:41:42(qc=5)
REM 
CELL 1.54180    5.42462    6.06157    7.70863   90.00000  107.58792   90.00000
LATT -1
SFAC Se Ag 
Se     1 -0.3758449616450 -0.2517821521558  0.3142431373976 1.0
Se     1  0.3758449616450 -0.2517821521558 -0.3142431373976 1.0
Se     1  0.3758449616450  0.2517821521558 -0.3142431373976 1.0
Se     1 -0.3758449616450  0.2517821521558  0.3142431373976 1.0
Ag     2  0.2471641888970  0.2469439387883 -0.0009081484351 1.0
Ag     2 -0.2471641888970  0.2469439387883  0.0009081484351 1.0
Ag     2 -0.2471641888970 -0.2469439387883  0.0009081484351 1.0
Ag     2  0.2471641888970 -0.2469439387883 -0.0009081484351 1.0
Ag     2 -0.1262156974501 -0.2456307355379 -0.3311556715662 1.0
Ag     2  0.1262156974501 -0.2456307355379  0.3311556715662 1.0
Ag     2  0.1262156974501  0.2456307355379  0.3311556715662 1.0
Ag     2 -0.1262156974501  0.2456307355379 -0.3311556715662 1.0
END
