TITL Ag2Se-P21c-200928-104121-9689a5 0.0039 230.379446 -4.61190228E+004 0 0 12 (P21/c) n - 1
REM
REM Run started: Mon, 28 Sep 2020 12:19:33 +0100 in /scratch/scratch/uccabz1/launch_tmp/launcher_2020-09-28-09-41-20-047398
REM CASTEP 19.11| from code version Version unavailable
REM Functional PBE for solids (2008) Relativity Koelling-Harmon Dispersion off
REM Cut-off 340.0000 eV Grid scale 1.7500 Gmax 16.5316 1/A FBSC none
REM MP grid 3 3 3 Offset 0.000 0.000 0.000 No. kpts 10 Spacing 0.07
REM Total runtime: 5976.57 s
REM Overall efficiency: 86.2857 %
REM
REM
REM
REM compiler GCC version 4.9.2
REM options -cpp -iprefix /scratch/UCL/applications/gcc/4.9.2/bin/../lib/gcc/x86_64-unknown-linux-gnu/4.9.2/ -mtune=corei7 -march=x86-64 -g -O2
REM COMMAND_LINE
REM seed 2117660496 -736999639 -616007056 -167486818 1527934040 -2002788363 -1982226994 -1906958178 641136329 170236919 -397413150 -1384946680
REM
REM Se 3|2.1|7|7|9|40:41:32(qc=5)
REM Ag 3|2.2|7|7|9|40U:50:41:42(qc=5)
REM 
CELL 1.54180    4.88743    7.12728    6.66921   90.00000   97.40307   90.00000
LATT -1
SFAC Se Ag 
Se     1  0.3046778311269 -0.0444049608728 -0.2838460843977 1.0
Se     1  0.1953221688731  0.4555950391272  0.2838460843977 1.0
Se     1 -0.3046778311269  0.0444049608728  0.2838460843977 1.0
Se     1 -0.1953221688731 -0.4555950391272 -0.2838460843977 1.0
Ag     2  0.2000912847371  0.1488707865750  0.0426362193905 1.0
Ag     2  0.2999087152629 -0.3511292134250 -0.0426362193905 1.0
Ag     2 -0.2000912847371 -0.1488707865750 -0.0426362193905 1.0
Ag     2 -0.2999087152629  0.3511292134250  0.0426362193905 1.0
Ag     2  0.2867997303170  0.3495626457585 -0.3243934085697 1.0
Ag     2  0.2132002696830 -0.1504373542415  0.3243934085697 1.0
Ag     2 -0.2867997303170 -0.3495626457585  0.3243934085697 1.0
Ag     2 -0.2132002696830  0.1504373542415 -0.3243934085697 1.0
END
