TITL Ag2Se-P2m-200928-123519-dd89b1 -0.0124 240.559738 -4.61166287E+004 0 0 12 (P2/m) n - 1
REM
REM Run started: Mon, 28 Sep 2020 15:19:57 +0100 in /scratch/scratch/uccabz1/launch_tmp/launcher_2020-09-28-11-35-17-509107
REM CASTEP 19.11| from code version Version unavailable
REM Functional PBE for solids (2008) Relativity Koelling-Harmon Dispersion off
REM Cut-off 340.0000 eV Grid scale 1.7500 Gmax 16.5316 1/A FBSC none
REM MP grid 3 3 2 Offset 0.000 0.000 0.000 No. kpts 6 Spacing 0.07
REM Total runtime: 9925.11 s
REM Overall efficiency: 95.5 %
REM
REM
REM
REM compiler GCC version 4.9.2
REM options -cpp -iprefix /scratch/UCL/applications/gcc/4.9.2/bin/../lib/gcc/x86_64-unknown-linux-gnu/4.9.2/ -mtune=corei7 -march=x86-64 -g -O2
REM COMMAND_LINE
REM seed -1861224483 2074718225 -1135120772 607551772 -1578999009 1134933940 -450967249 1941649015 801691263 -1941896980 -147167287 -1086636662
REM
REM Se 3|2.1|7|7|9|40:41:32(qc=5)
REM Ag 3|2.2|7|7|9|40U:50:41:42(qc=5)
REM 
CELL 1.54180    5.40043    6.04007    7.69391   90.00000  106.55845   90.00000
LATT -1
SFAC Se Ag 
Se     1 -0.1101102201257 -0.2494700921089 -0.3125992850917 1.0
Se     1  0.1101102201257 -0.2494700921089  0.3125992850917 1.0
Se     1  0.1101102201257  0.2494700921089  0.3125992850917 1.0
Se     1 -0.1101102201257  0.2494700921089 -0.3125992850917 1.0
Ag     2 -0.3835507151420 -0.2501306780295  0.3353153350587 1.0
Ag     2  0.3835507151420 -0.2501306780295 -0.3353153350587 1.0
Ag     2  0.3835507151420  0.2501306780295 -0.3353153350587 1.0
Ag     2 -0.3835507151420  0.2501306780295  0.3353153350587 1.0
Ag     2 -0.2548389408061 -0.2500761714040 -0.0034324716047 1.0
Ag     2  0.2548389408061 -0.2500761714040  0.0034324716047 1.0
Ag     2  0.2548389408061  0.2500761714040  0.0034324716047 1.0
Ag     2 -0.2548389408061  0.2500761714040 -0.0034324716047 1.0
END
