TITL Ag2Se-P21c-200928-115454-fa28ba 0.0102 230.321550 -4.61190474E+004 0 0 12 (P21/c) n - 1
REM
REM Run started: Mon, 28 Sep 2020 13:30:26 +0100 in /scratch/scratch/uccabz1/launch_tmp/launcher_2020-09-28-10-54-52-529328
REM CASTEP 19.11| from code version Version unavailable
REM Functional PBE for solids (2008) Relativity Koelling-Harmon Dispersion off
REM Cut-off 340.0000 eV Grid scale 1.7500 Gmax 16.5316 1/A FBSC none
REM MP grid 3 2 3 Offset 0.000 0.000 0.000 No. kpts 5 Spacing 0.07
REM Total runtime: 6176.87 s
REM Overall efficiency: 86.125 %
REM
REM
REM
REM compiler GCC version 4.9.2
REM options -cpp -iprefix /scratch/UCL/applications/gcc/4.9.2/bin/../lib/gcc/x86_64-unknown-linux-gnu/4.9.2/ -mtune=corei7 -march=x86-64 -g -O2
REM COMMAND_LINE
REM seed -114043928 1853580964 -2008770397 2146388563 -166572390 940333176 -76007756 -2090331029 1659295141 1524999910 1379296706 430041778
REM
REM Se 3|2.1|7|7|9|40:41:32(qc=5)
REM Ag 3|2.2|7|7|9|40U:50:41:42(qc=5)
REM 
CELL 1.54180    4.89940    7.13800    6.64088   90.00000   97.37778   90.00000
LATT -1
SFAC Se Ag 
Se     1  0.1956358650530 -0.4576197754843  0.2817166690211 1.0
Se     1  0.3043641349470  0.0423802245157 -0.2817166690211 1.0
Se     1 -0.1956358650530  0.4576197754843 -0.2817166690211 1.0
Se     1 -0.3043641349470 -0.0423802245157  0.2817166690211 1.0
Ag     2  0.3084911056376  0.3503757486473 -0.0450762486995 1.0
Ag     2  0.1915088943624 -0.1496242513527  0.0450762486995 1.0
Ag     2 -0.3084911056376 -0.3503757486473  0.0450762486995 1.0
Ag     2 -0.1915088943624  0.1496242513527 -0.0450762486995 1.0
Ag     2 -0.2128844898337 -0.1517331503533 -0.3265848904099 1.0
Ag     2 -0.2871155101663  0.3482668496467  0.3265848904099 1.0
Ag     2  0.2128844898337  0.1517331503533  0.3265848904099 1.0
Ag     2  0.2871155101663 -0.3482668496467 -0.3265848904099 1.0
END
