TITL Ag2Se-P21c-200928-121113-b0bd42 0.0351 234.942476 -4.61189218E+004 0 0 12 (P21/c) n - 1
REM
REM Run started: Mon, 28 Sep 2020 13:06:03 +0100 in /lustre/scratch/uccabz1/launch_tmp/launcher_2020-09-28-11-11-12-064431
REM CASTEP 20.1 from code version af48c487+ pr-geom-scf-spinfix Tue Jun 2 15:39:59 2020 +0100
REM Functional PBE for solids (2008) Relativity Koelling-Harmon Dispersion off
REM Cut-off 340.0000 eV Grid scale 1.7500 Gmax 16.5316 1/A FBSC none
REM MP grid 4 2 2 Offset 0.000 0.000 0.000 No. kpts 4 Spacing 0.07
REM Total runtime: 3691.3 s
REM Overall efficiency: 96 %
REM
REM
REM
REM compiler GCC version 4.9.2
REM options -cpp -iprefix /lustre/shared/ucl/apps/gcc/4.9.2/bin/../lib/gcc/x86_64-unknown-linux-gnu/4.9.2/ -mtune=corei7 -march=x86-64 -g -Og
REM COMMAND_LINE
REM seed -1175779650 -273562273 -177989067 907463559 -483813537 -2070805887 1312253644 -570489306 1217542557 2036646977 164638335 -228072247
REM
REM Se 3|2.1|7|7|9|40:41:32(qc=5)
REM Ag 3|2.2|7|7|9|40U:50:41:42(qc=5)
REM 
CELL 1.54180    4.14933    7.42725    7.97491   90.00000  107.07152   90.00000
LATT -1
SFAC Se Ag 
Se     1  0.2802991748189  0.2343238946125  0.1117933945120 1.0
Se     1 -0.2802991748189 -0.2656761053875  0.3882066054880 1.0
Se     1 -0.2802991748189 -0.2343238946125 -0.1117933945120 1.0
Se     1  0.2802991748189  0.2656761053875 -0.3882066054880 1.0
Ag     2  0.0478990493309 -0.4306646258518 -0.2922328680535 1.0
Ag     2 -0.0478990493309  0.0693353741482 -0.2077671319465 1.0
Ag     2 -0.0478990493309  0.4306646258518  0.2922328680535 1.0
Ag     2  0.0478990493309 -0.0693353741482  0.2077671319465 1.0
Ag     2 -0.3109706157832  0.1128698766510  0.4141110872556 1.0
Ag     2  0.3109706157832 -0.3871301233490  0.0858889127444 1.0
Ag     2  0.3109706157832 -0.1128698766510 -0.4141110872556 1.0
Ag     2 -0.3109706157832  0.3871301233490 -0.0858889127444 1.0
END
