TITL Ag2Se-P2m-200928-125053-1e3055 -0.0103 241.024669 -4.61166360E+004 0 0 12 (P2/m) n - 1
REM
REM Run started: Mon, 28 Sep 2020 14:23:26 +0100 in /lustre/scratch/uccabz1/launch_tmp/launcher_2020-09-28-11-50-51-552242
REM CASTEP 20.1 from code version af48c487+ pr-geom-scf-spinfix Tue Jun 2 15:39:59 2020 +0100
REM Functional PBE for solids (2008) Relativity Koelling-Harmon Dispersion off
REM Cut-off 340.0000 eV Grid scale 1.7500 Gmax 16.5316 1/A FBSC none
REM MP grid 3 3 2 Offset 0.000 0.000 0.000 No. kpts 6 Spacing 0.07
REM Total runtime: 5601.11 s
REM Overall efficiency: 94.4286 %
REM
REM
REM
REM compiler GCC version 4.9.2
REM options -cpp -iprefix /lustre/shared/ucl/apps/gcc/4.9.2/bin/../lib/gcc/x86_64-unknown-linux-gnu/4.9.2/ -mtune=corei7 -march=x86-64 -g -Og
REM COMMAND_LINE
REM seed -1056524564 -1870036248 -1927045531 342292926 -963408851 208675580 830501158 -650707344 -1627183880 -1249859981 1961855967 -1217576243
REM
REM Se 3|2.1|7|7|9|40:41:32(qc=5)
REM Ag 3|2.2|7|7|9|40U:50:41:42(qc=5)
REM 
CELL 1.54180    5.41950    6.04729    7.69701   90.00000  107.16207   90.00000
LATT -1
SFAC Se Ag 
Se     1  0.1174068677680 -0.2485977871441  0.3136783359165 1.0
Se     1 -0.1174068677680 -0.2485977871441 -0.3136783359165 1.0
Se     1 -0.1174068677680  0.2485977871441 -0.3136783359165 1.0
Se     1  0.1174068677680  0.2485977871441  0.3136783359165 1.0
Ag     2  0.2541319950207  0.2507624838402  0.0022620486737 1.0
Ag     2 -0.2541319950207  0.2507624838402 -0.0022620486737 1.0
Ag     2 -0.2541319950207 -0.2507624838402 -0.0022620486737 1.0
Ag     2  0.2541319950207 -0.2507624838402  0.0022620486737 1.0
Ag     2 -0.3784411132593 -0.2499276168652  0.3329066529529 1.0
Ag     2  0.3784411132593 -0.2499276168652 -0.3329066529529 1.0
Ag     2  0.3784411132593  0.2499276168652 -0.3329066529529 1.0
Ag     2 -0.3784411132593  0.2499276168652  0.3329066529529 1.0
END
