TITL Ag2Se-P2m-200928-125454-171fe7 -0.0464 238.978302 -4.61161179E+004 0 0 12 (P2/m) n - 1
REM
REM Run started: Mon, 28 Sep 2020 14:06:10 +0100 in /lustre/scratch/uccabz1/launch_tmp/launcher_2020-09-28-11-54-52-559248
REM CASTEP 20.1 from code version af48c487+ pr-geom-scf-spinfix Tue Jun 2 15:39:59 2020 +0100
REM Functional PBE for solids (2008) Relativity Koelling-Harmon Dispersion off
REM Cut-off 340.0000 eV Grid scale 1.7500 Gmax 16.5316 1/A FBSC none
REM MP grid 3 3 2 Offset 0.000 0.000 0.000 No. kpts 6 Spacing 0.07
REM Total runtime: 4323.16 s
REM Overall efficiency: 93.5 %
REM
REM
REM
REM compiler GCC version 4.9.2
REM options -cpp -iprefix /lustre/shared/ucl/apps/gcc/4.9.2/bin/../lib/gcc/x86_64-unknown-linux-gnu/4.9.2/ -mtune=corei7 -march=x86-64 -g -Og
REM COMMAND_LINE
REM seed -675448019 -562570826 2072519665 2023573228 204214951 2065821366 806587610 -427826442 502047594 1263802287 1992509780 2042480718
REM
REM Se 3|2.1|7|7|9|40:41:32(qc=5)
REM Ag 3|2.2|7|7|9|40U:50:41:42(qc=5)
REM 
CELL 1.54180    5.24651    5.70015    8.00301   90.00000   93.13857   90.00000
LATT -1
SFAC Se Ag 
Se     1  0.3389004570255  0.2490946735182  0.2147116543314 1.0
Se     1 -0.3389004570255  0.2490946735182 -0.2147116543314 1.0
Se     1 -0.3389004570255 -0.2490946735182 -0.2147116543314 1.0
Se     1  0.3389004570255 -0.2490946735182  0.2147116543314 1.0
Ag     2 -0.2494713012137 -0.2493102078235  0.4597777337214 1.0
Ag     2  0.2494713012137 -0.2493102078235 -0.4597777337214 1.0
Ag     2  0.2494713012137  0.2493102078235 -0.4597777337214 1.0
Ag     2 -0.2494713012137  0.2493102078235  0.4597777337214 1.0
Ag     2 -0.1660229412582  0.2507624659605  0.1285342331011 1.0
Ag     2  0.1660229412582  0.2507624659605 -0.1285342331011 1.0
Ag     2  0.1660229412582 -0.2507624659605 -0.1285342331011 1.0
Ag     2 -0.1660229412582 -0.2507624659605  0.1285342331011 1.0
END
