TITL Ag2Se-P21c-200928-111641-e0a65d 0.0042 235.216652 -4.61187382E+004 0 0 12 (P21/c) n - 1
REM
REM Run started: Mon, 28 Sep 2020 12:00:28 +0100 in /lustre/scratch/uccabz1/launch_tmp/launcher_2020-09-28-10-16-40-212122
REM CASTEP 20.1 from code version af48c487+ pr-geom-scf-spinfix Tue Jun 2 15:39:59 2020 +0100
REM Functional PBE for solids (2008) Relativity Koelling-Harmon Dispersion off
REM Cut-off 340.0000 eV Grid scale 1.7500 Gmax 16.5316 1/A FBSC none
REM MP grid 4 2 3 Offset 0.000 0.000 0.000 No. kpts 6 Spacing 0.07
REM Total runtime: 2676.84 s
REM Overall efficiency: 92.6667 %
REM
REM
REM
REM compiler GCC version 4.9.2
REM options -cpp -iprefix /lustre/shared/ucl/apps/gcc/4.9.2/bin/../lib/gcc/x86_64-unknown-linux-gnu/4.9.2/ -mtune=corei7 -march=x86-64 -g -Og
REM COMMAND_LINE
REM seed -1707095861 -1896008276 325802866 1853656205 1560608183 173454299 -1491294441 -615354537 -928569288 307278625 -663814925 1326200242
REM
REM Se 3|2.1|7|7|9|40:41:32(qc=5)
REM Ag 3|2.2|7|7|9|40U:50:41:42(qc=5)
REM 
CELL 1.54180    4.16845    8.05370    7.37350   90.00000  108.15468   90.00000
LATT -1
SFAC Se Ag 
Se     1 -0.2860314424276 -0.4121913418870  0.2512188763138 1.0
Se     1  0.2860314424276  0.0878086581130  0.2487811236862 1.0
Se     1  0.2860314424276  0.4121913418870 -0.2512188763138 1.0
Se     1 -0.2860314424276 -0.0878086581130 -0.2487811236862 1.0
Ag     2 -0.1296316956160  0.1702481852558 -0.4879384387067 1.0
Ag     2  0.1296316956160 -0.3297518147442 -0.0120615612933 1.0
Ag     2  0.1296316956160 -0.1702481852558  0.4879384387067 1.0
Ag     2 -0.1296316956160  0.3297518147442  0.0120615612933 1.0
Ag     2  0.2879534344846  0.1094112393944 -0.1212510648517 1.0
Ag     2 -0.2879534344846 -0.3905887606055 -0.3787489351483 1.0
Ag     2 -0.2879534344846 -0.1094112393944  0.1212510648517 1.0
Ag     2  0.2879534344846  0.3905887606055  0.3787489351483 1.0
END
