TITL Ag2Se-P2m-200928-130458-0a8d3a -0.0216 242.935042 -4.61166522E+004 0 0 12 (P2/m) n - 1
REM
REM Run started: Mon, 28 Sep 2020 14:10:01 +0100 in /lustre/scratch/uccabz1/launch_tmp/launcher_2020-09-28-12-04-56-142489
REM CASTEP 20.1 from code version af48c487+ pr-geom-scf-spinfix Tue Jun 2 15:39:59 2020 +0100
REM Functional PBE for solids (2008) Relativity Koelling-Harmon Dispersion off
REM Cut-off 340.0000 eV Grid scale 1.7500 Gmax 16.5316 1/A FBSC none
REM MP grid 3 3 2 Offset 0.000 0.000 0.000 No. kpts 6 Spacing 0.07
REM Total runtime: 3984.17 s
REM Overall efficiency: 94.6667 %
REM
REM
REM
REM compiler GCC version 4.9.2
REM options -cpp -iprefix /lustre/shared/ucl/apps/gcc/4.9.2/bin/../lib/gcc/x86_64-unknown-linux-gnu/4.9.2/ -mtune=corei7 -march=x86-64 -g -Og
REM COMMAND_LINE
REM seed -2056862566 -1277341758 -989919028 -359186107 1909238402 -2053520638 484960341 -903712262 -1932230772 -341078620 543797828 1796151095
REM
REM Se 3|2.1|7|7|9|40:41:32(qc=5)
REM Ag 3|2.2|7|7|9|40U:50:41:42(qc=5)
REM 
CELL 1.54180    5.43692    6.08766    7.72726   90.00000  108.21956   90.00000
LATT -1
SFAC Se Ag 
Se     1 -0.3688249686200  0.2491815404895 -0.1861736316868 1.0
Se     1  0.3688249686200  0.2491815404895  0.1861736316868 1.0
Se     1  0.3688249686200 -0.2491815404895  0.1861736316868 1.0
Se     1 -0.3688249686200 -0.2491815404895 -0.1861736316868 1.0
Ag     2  0.2473251511469 -0.2492718966408 -0.4995102328213 1.0
Ag     2 -0.2473251511469 -0.2492718966408  0.4995102328213 1.0
Ag     2 -0.2473251511469  0.2492718966408  0.4995102328213 1.0
Ag     2  0.2473251511469  0.2492718966408 -0.4995102328213 1.0
Ag     2 -0.1326767281374  0.2516841358540  0.1703083160636 1.0
Ag     2  0.1326767281374  0.2516841358540 -0.1703083160636 1.0
Ag     2  0.1326767281374 -0.2516841358540 -0.1703083160636 1.0
Ag     2 -0.1326767281374 -0.2516841358540  0.1703083160636 1.0
END
