TITL Ag2Se-P21c-200928-111202-c1894d 0.0040 230.430260 -4.61189555E+004 0 0 12 (P21/c) n - 1
REM
REM Run started: Mon, 28 Sep 2020 12:54:54 +0100 in /lustre/scratch/uccabz1/launch_tmp/launcher_2020-09-28-10-12-00-683580
REM CASTEP 20.1 from code version af48c487+ pr-geom-scf-spinfix Tue Jun 2 15:39:59 2020 +0100
REM Functional PBE for solids (2008) Relativity Koelling-Harmon Dispersion off
REM Cut-off 340.0000 eV Grid scale 1.7500 Gmax 16.5316 1/A FBSC none
REM MP grid 4 2 3 Offset 0.000 0.000 0.000 No. kpts 6 Spacing 0.07
REM Total runtime: 6461.67 s
REM Overall efficiency: 96.2857 %
REM
REM
REM
REM compiler GCC version 4.9.2
REM options -cpp -iprefix /lustre/shared/ucl/apps/gcc/4.9.2/bin/../lib/gcc/x86_64-unknown-linux-gnu/4.9.2/ -mtune=corei7 -march=x86-64 -g -Og
REM COMMAND_LINE
REM seed -688802773 1201937174 -1041130144 -1883103313 1069194065 -992780459 -2066498215 -630691154 1784667180 1664271329 -171723416 666632271
REM
REM Se 3|2.1|7|7|9|40:41:32(qc=5)
REM Ag 3|2.2|7|7|9|40U:50:41:42(qc=5)
REM 
CELL 1.54180    4.89012    7.10243    7.82331   90.00000  121.99957   90.00000
LATT -1
SFAC Se Ag 
Se     1 -0.4061461908253  0.0432817475467  0.2825214856680 1.0
Se     1 -0.0938538091747 -0.4567182524533 -0.2825214856680 1.0
Se     1  0.4061461908253 -0.0432817475467 -0.2825214856680 1.0
Se     1  0.0938538091747  0.4567182524533  0.2825214856680 1.0
Ag     2  0.3465597387663  0.3510861006340  0.0419016029920 1.0
Ag     2  0.1534402612337 -0.1489138993660 -0.0419016029920 1.0
Ag     2 -0.3465597387663 -0.3510861006340 -0.0419016029920 1.0
Ag     2 -0.1534402612337  0.1489138993660  0.0419016029920 1.0
Ag     2  0.1350277361651 -0.1493568443338  0.3273762297772 1.0
Ag     2  0.3649722638349  0.3506431556662 -0.3273762297772 1.0
Ag     2 -0.1350277361651  0.1493568443338 -0.3273762297772 1.0
Ag     2 -0.3649722638349 -0.3506431556662  0.3273762297772 1.0
END
