TITL Ag2Se-P21c-200928-094600-8fa622 -0.0076 227.264732 -4.61188727E+004 0 0 12 (P21/c) n - 1
REM
REM Run started: Mon, 28 Sep 2020 11:53:27 +0100 in /scratch/scratch/uccabz1/launch_tmp/launcher_2020-09-28-08-45-58-817356
REM CASTEP 19.11| from code version Version unavailable
REM Functional PBE for solids (2008) Relativity Koelling-Harmon Dispersion off
REM Cut-off 340.0000 eV Grid scale 1.7500 Gmax 16.5316 1/A FBSC none
REM MP grid 3 3 2 Offset 0.000 0.000 0.000 No. kpts 6 Spacing 0.07
REM Total runtime: 7719.34 s
REM Overall efficiency: 95.7778 %
REM
REM
REM
REM compiler GCC version 4.9.2
REM options -cpp -iprefix /scratch/UCL/applications/gcc/4.9.2/bin/../lib/gcc/x86_64-unknown-linux-gnu/4.9.2/ -mtune=corei7 -march=x86-64 -g -O2
REM COMMAND_LINE
REM seed 1377040127 1565517694 -285380805 902408472 1118784740 -2124478184 -832488430 663790234 1257830544 163298861 -675448019 -642024163
REM
REM Se 3|2.1|7|7|9|40:41:32(qc=5)
REM Ag 3|2.2|7|7|9|40U:50:41:42(qc=5)
REM 
CELL 1.54180    5.05519    4.88973    9.38405   90.00000  101.54768   90.00000
LATT -1
SFAC Se Ag 
Se     1  0.3281992017809  0.3564826043753 -0.3787273400165 1.0
Se     1 -0.3281992017809 -0.1435173956247 -0.1212726599835 1.0
Se     1 -0.3281992017809 -0.3564826043753  0.3787273400165 1.0
Se     1  0.3281992017809  0.1435173956247  0.1212726599835 1.0
Ag     2 -0.2410921211769  0.1291757823152 -0.4917792782746 1.0
Ag     2  0.2410921211769 -0.3708242176848 -0.0082207217254 1.0
Ag     2  0.2410921211769 -0.1291757823152  0.4917792782746 1.0
Ag     2 -0.2410921211769  0.3708242176848  0.0082207217254 1.0
Ag     2  0.1170812264254  0.1127666115510 -0.1834206650063 1.0
Ag     2 -0.1170812264254 -0.3872333884490 -0.3165793349937 1.0
Ag     2 -0.1170812264254 -0.1127666115510  0.1834206650063 1.0
Ag     2  0.1170812264254  0.3872333884490  0.3165793349937 1.0
END
