TITL Ag2Se-P21c-200928-115238-066183 -0.0648 230.390169 -4.61190015E+004 0 0 12 (P21/c) n - 1
REM
REM Run started: Mon, 28 Sep 2020 13:32:21 +0100 in /lustre/scratch/uccabz1/launch_tmp/launcher_2020-09-28-10-52-32-934214
REM CASTEP 20.1 from code version af48c487+ pr-geom-scf-spinfix Tue Jun 2 15:39:59 2020 +0100
REM Functional PBE for solids (2008) Relativity Koelling-Harmon Dispersion off
REM Cut-off 340.0000 eV Grid scale 1.7500 Gmax 16.5316 1/A FBSC none
REM MP grid 4 3 3 Offset 0.000 0.000 0.000 No. kpts 12 Spacing 0.07
REM Total runtime: 6018.69 s
REM Overall efficiency: 94 %
REM
REM
REM
REM compiler GCC version 4.9.2
REM options -cpp -iprefix /lustre/shared/ucl/apps/gcc/4.9.2/bin/../lib/gcc/x86_64-unknown-linux-gnu/4.9.2/ -mtune=corei7 -march=x86-64 -g -Og
REM COMMAND_LINE
REM seed -1738932498 207398374 -1736194257 1619415847 -926172241 1564842729 -1780201415 -1241729387 -1765984118 1472297251 -1017975220 723756569
REM
REM Se 3|2.1|7|7|9|40:41:32(qc=5)
REM Ag 3|2.2|7|7|9|40U:50:41:42(qc=5)
REM 
CELL 1.54180    4.86970    7.14254    7.80320   90.00000  121.91207   90.00000
LATT -1
SFAC Se Ag 
Se     1 -0.4078974162012 -0.0434785247100  0.2830203821546 1.0
Se     1 -0.0921025837988  0.4565214752900 -0.2830203821546 1.0
Se     1  0.4078974162012  0.0434785247100 -0.2830203821546 1.0
Se     1  0.0921025837988 -0.4565214752900  0.2830203821546 1.0
Ag     2 -0.1521792245121 -0.1486381225682  0.0420457919094 1.0
Ag     2 -0.3478207754879  0.3513618774318 -0.0420457919094 1.0
Ag     2  0.1521792245121  0.1486381225682 -0.0420457919094 1.0
Ag     2  0.3478207754879 -0.3513618774318  0.0420457919094 1.0
Ag     2  0.3688436699036 -0.3501521581303 -0.3276728621016 1.0
Ag     2  0.1311563300964  0.1498478418697  0.3276728621016 1.0
Ag     2 -0.3688436699036  0.3501521581303  0.3276728621016 1.0
Ag     2 -0.1311563300964 -0.1498478418697 -0.3276728621016 1.0
END
