TITL Ag2Se-P21c-200928-093300-439297 -0.0430 231.425729 -4.61190381E+004 0 0 12 (P21/c) n - 1
REM
REM Run started: Mon, 28 Sep 2020 10:31:50 +0100 in /lustre/scratch/uccabz1/launch_tmp/launcher_2020-09-28-08-32-58-535107
REM CASTEP 20.1 from code version af48c487+ pr-geom-scf-spinfix Tue Jun 2 15:39:59 2020 +0100
REM Functional PBE for solids (2008) Relativity Koelling-Harmon Dispersion off
REM Cut-off 340.0000 eV Grid scale 1.7500 Gmax 16.5316 1/A FBSC none
REM MP grid 4 3 2 Offset 0.000 0.000 0.000 No. kpts 8 Spacing 0.07
REM Total runtime: 3572.82 s
REM Overall efficiency: 92.2857 %
REM
REM
REM
REM compiler GCC version 4.9.2
REM options -cpp -iprefix /lustre/shared/ucl/apps/gcc/4.9.2/bin/../lib/gcc/x86_64-unknown-linux-gnu/4.9.2/ -mtune=corei7 -march=x86-64 -g -Og
REM COMMAND_LINE
REM seed 469305852 -1742609443 779794113 -657415235 607428021 -2096697483 -1622201558 1061422465 1061915483 -1118971353 -1032311398 -681734740
REM
REM Se 3|2.1|7|7|9|40:41:32(qc=5)
REM Ag 3|2.2|7|7|9|40U:50:41:42(qc=5)
REM 
CELL 1.54180    4.41253    6.92176    7.90576   90.00000  106.57698   90.00000
LATT -1
SFAC Se Ag 
Se     1 -0.3357934806595  0.2501607652773 -0.1542668668825 1.0
Se     1  0.3357934806595 -0.2498392347227 -0.3457331331175 1.0
Se     1  0.3357934806595 -0.2501607652773  0.1542668668825 1.0
Se     1 -0.3357934806595  0.2498392347227  0.3457331331175 1.0
Ag     2  0.2571802265061  0.3599217235611 -0.4660359398359 1.0
Ag     2 -0.2571802265061 -0.1400782764389 -0.0339640601641 1.0
Ag     2 -0.2571802265061 -0.3599217235611  0.4660359398359 1.0
Ag     2  0.2571802265061  0.1400782764389  0.0339640601641 1.0
Ag     2 -0.0709134287445 -0.5242101447811  0.1616307773119 1.0
Ag     2  0.0709134287445 -0.0242101447811  0.3383692226881 1.0
Ag     2  0.0709134287445  0.5242101447811 -0.1616307773119 1.0
Ag     2 -0.0709134287445  0.0242101447811 -0.3383692226881 1.0
END
