TITL Ag2Se-P21c-200928-111202-818653 -0.0308 231.326703 -4.61190342E+004 0 0 12 (P21/c) n - 1
REM
REM Run started: Mon, 28 Sep 2020 12:27:34 +0100 in /lustre/scratch/uccabz1/launch_tmp/launcher_2020-09-28-10-12-00-684350
REM CASTEP 20.1 from code version af48c487+ pr-geom-scf-spinfix Tue Jun 2 15:39:59 2020 +0100
REM Functional PBE for solids (2008) Relativity Koelling-Harmon Dispersion off
REM Cut-off 340.0000 eV Grid scale 1.7500 Gmax 16.5316 1/A FBSC none
REM MP grid 4 3 2 Offset 0.000 0.000 0.000 No. kpts 8 Spacing 0.07
REM Total runtime: 4704.75 s
REM Overall efficiency: 95.4286 %
REM
REM
REM
REM compiler GCC version 4.9.2
REM options -cpp -iprefix /lustre/shared/ucl/apps/gcc/4.9.2/bin/../lib/gcc/x86_64-unknown-linux-gnu/4.9.2/ -mtune=corei7 -march=x86-64 -g -Og
REM COMMAND_LINE
REM seed -1436389813 1979708549 -744640263 461787714 -1573782196 -696545264 -1249469792 -809764781 -1441424809 -565906517 1910989511 -922343005
REM
REM Se 3|2.1|7|7|9|40:41:32(qc=5)
REM Ag 3|2.2|7|7|9|40U:50:41:42(qc=5)
REM 
CELL 1.54180    4.40013    6.91835    7.91954   90.00000  106.35644   90.00000
LATT -1
SFAC Se Ag 
Se     1  0.1643277999053  0.2499196453059  0.3478802022006 1.0
Se     1 -0.1643277999053 -0.2500803546941  0.1521197977994 1.0
Se     1 -0.1643277999053 -0.2499196453059 -0.3478802022006 1.0
Se     1  0.1643277999053  0.2500803546941 -0.1521197977994 1.0
Ag     2 -0.2433728462206  0.1402777148827 -0.4632882521428 1.0
Ag     2  0.2433728462206 -0.3597222851173 -0.0367117478572 1.0
Ag     2  0.2433728462206 -0.1402777148827  0.4632882521428 1.0
Ag     2 -0.2433728462206  0.3597222851173  0.0367117478572 1.0
Ag     2  0.4193510214476  0.4789324779819 -0.3409217120518 1.0
Ag     2 -0.4193510214476 -0.0210675220182 -0.1590782879482 1.0
Ag     2 -0.4193510214476 -0.4789324779819  0.3409217120518 1.0
Ag     2  0.4193510214476  0.0210675220182  0.1590782879482 1.0
END
