TITL Ag2Se-P2m-200928-125828-f096ce -0.0167 242.960315 -4.61166534E+004 0 0 12 (P2/m) n - 1
REM
REM Run started: Mon, 28 Sep 2020 14:05:36 +0100 in /lustre/scratch/uccabz1/launch_tmp/launcher_2020-09-28-11-58-26-355860
REM CASTEP 20.1 from code version af48c487+ pr-geom-scf-spinfix Tue Jun 2 15:39:59 2020 +0100
REM Functional PBE for solids (2008) Relativity Koelling-Harmon Dispersion off
REM Cut-off 340.0000 eV Grid scale 1.7500 Gmax 16.5316 1/A FBSC none
REM MP grid 3 3 2 Offset 0.000 0.000 0.000 No. kpts 6 Spacing 0.07
REM Total runtime: 4080.94 s
REM Overall efficiency: 93.5 %
REM
REM
REM
REM compiler GCC version 4.9.2
REM options -cpp -iprefix /lustre/shared/ucl/apps/gcc/4.9.2/bin/../lib/gcc/x86_64-unknown-linux-gnu/4.9.2/ -mtune=corei7 -march=x86-64 -g -Og
REM COMMAND_LINE
REM seed 132619972 -1640593477 278902719 387504880 -778795623 -1472855665 -1202867952 -1778767879 1319457081 -1951642632 1985080231 -38804899
REM
REM Se 3|2.1|7|7|9|40:41:32(qc=5)
REM Ag 3|2.2|7|7|9|40U:50:41:42(qc=5)
REM 
CELL 1.54180    5.43329    6.08500    7.74335   90.00000  108.37096   90.00000
LATT -1
SFAC Se Ag 
Se     1  0.3674206269115  0.2503076933218 -0.3140700444967 1.0
Se     1 -0.3674206269115  0.2503076933218  0.3140700444967 1.0
Se     1 -0.3674206269115 -0.2503076933218  0.3140700444967 1.0
Se     1  0.3674206269115 -0.2503076933218 -0.3140700444967 1.0
Ag     2  0.1344252379956 -0.2515549303636  0.3289642948455 1.0
Ag     2 -0.1344252379956 -0.2515549303636 -0.3289642948455 1.0
Ag     2 -0.1344252379956  0.2515549303636 -0.3289642948455 1.0
Ag     2  0.1344252379956  0.2515549303636  0.3289642948455 1.0
Ag     2  0.2473557463456 -0.2483495111097 -0.0000711351563 1.0
Ag     2 -0.2473557463456 -0.2483495111097  0.0000711351563 1.0
Ag     2 -0.2473557463456  0.2483495111097  0.0000711351563 1.0
Ag     2  0.2473557463456  0.2483495111097 -0.0000711351563 1.0
END
