TITL Ag2Se-P2m-200928-134021-5c68be 0.0229 232.070139 -4.61165501E+004 0 0 12 (Cmmm) n - 1
REM
REM Run started: Mon, 28 Sep 2020 15:06:10 +0100 in /scratch/scratch/uccabz1/launch_tmp/launcher_2020-09-28-12-40-19-592114
REM CASTEP 19.11| from code version Version unavailable
REM Functional PBE for solids (2008) Relativity Koelling-Harmon Dispersion off
REM Cut-off 340.0000 eV Grid scale 1.7500 Gmax 16.5316 1/A FBSC none
REM MP grid 3 3 2 Offset 0.000 0.000 0.000 No. kpts 6 Spacing 0.07
REM Total runtime: 5219.97 s
REM Overall efficiency: 95.2857 %
REM
REM
REM
REM compiler GCC version 4.9.2
REM options -cpp -iprefix /scratch/UCL/applications/gcc/4.9.2/bin/../lib/gcc/x86_64-unknown-linux-gnu/4.9.2/ -mtune=corei7 -march=x86-64 -g -O2
REM COMMAND_LINE
REM seed 869151017 1445514387 -1619498350 354189249 167490761 896105381 -2104251601 1857389508 1741610852 899966615 -585391062 1154575059
REM
REM Se 3|2.1|7|7|9|40:41:32(qc=5)
REM Ag 3|2.2|7|7|9|40U:50:41:42(qc=5)
REM 
CELL 1.54180    4.88429    5.70732    8.32502   90.00000   90.06152   90.00000
LATT -1
SFAC Se Ag 
Se     1  0.2506905206009  0.2498674694932 -0.2491076768544 1.0
Se     1 -0.2506905206009  0.2498674694932  0.2491076768544 1.0
Se     1 -0.2506905206009 -0.2498674694932  0.2491076768544 1.0
Se     1  0.2506905206009 -0.2498674694932 -0.2491076768544 1.0
Ag     2  0.2502288899939 -0.2499661888665  0.4177674768332 1.0
Ag     2 -0.2502288899939 -0.2499661888665 -0.4177674768332 1.0
Ag     2 -0.2502288899939  0.2499661888665 -0.4177674768332 1.0
Ag     2  0.2502288899939  0.2499661888665  0.4177674768332 1.0
Ag     2  0.2501701636429  0.2500672401347  0.0834520392715 1.0
Ag     2 -0.2501701636429  0.2500672401347 -0.0834520392715 1.0
Ag     2 -0.2501701636429 -0.2500672401347 -0.0834520392715 1.0
Ag     2  0.2501701636429 -0.2500672401347  0.0834520392715 1.0
END
