TITL Ag2Se-P21c-200928-113449-0e40a7 -0.0171 236.475674 -4.61180673E+004 0 0 12 (Pnma) n - 1
REM
REM Run started: Mon, 28 Sep 2020 14:05:11 +0100 in /scratch/scratch/uccabz1/launch_tmp/launcher_2020-09-28-10-34-48-152257
REM CASTEP 19.11| from code version Version unavailable
REM Functional PBE for solids (2008) Relativity Koelling-Harmon Dispersion off
REM Cut-off 340.0000 eV Grid scale 1.7500 Gmax 16.5316 1/A FBSC none
REM MP grid 4 3 2 Offset 0.000 0.000 0.000 No. kpts 8 Spacing 0.07
REM Total runtime: 9066.44 s
REM Overall efficiency: 94 %
REM
REM
REM
REM compiler GCC version 4.9.2
REM options -cpp -iprefix /scratch/UCL/applications/gcc/4.9.2/bin/../lib/gcc/x86_64-unknown-linux-gnu/4.9.2/ -mtune=corei7 -march=x86-64 -g -O2
REM COMMAND_LINE
REM seed -2043261436 1425151099 -2124769006 409732515 -1133204292 339137328 131617810 1099638532 -1465556586 -1812265658 1101436546 824968874
REM
REM Se 3|2.1|7|7|9|40:41:32(qc=5)
REM Ag 3|2.2|7|7|9|40U:50:41:42(qc=5)
REM 
CELL 1.54180    4.70804    6.34371    7.91778   90.00000   90.02990   90.00000
LATT -1
SFAC Se Ag 
Se     1  0.2703292359263  0.4965682390989  0.2486585056319 1.0
Se     1  0.2296707640737 -0.0034317609011 -0.2486585056319 1.0
Se     1 -0.2703292359263 -0.4965682390989 -0.2486585056319 1.0
Se     1 -0.2296707640737  0.0034317609011  0.2486585056319 1.0
Ag     2 -0.2354994908925 -0.3874456451755  0.0709709936681 1.0
Ag     2 -0.2645005091075  0.1125543548245 -0.0709709936681 1.0
Ag     2  0.2354994908925  0.3874456451755 -0.0709709936681 1.0
Ag     2  0.2645005091075 -0.1125543548245  0.0709709936681 1.0
Ag     2  0.2376331108973  0.3881390300125 -0.4306676132597 1.0
Ag     2  0.2623668891027 -0.1118609699875  0.4306676132597 1.0
Ag     2 -0.2376331108973 -0.3881390300125  0.4306676132597 1.0
Ag     2 -0.2623668891027  0.1118609699875 -0.4306676132597 1.0
END
