TITL Ag2Se-P2m-200928-131722-05a118 -0.0118 242.379245 -4.61166518E+004 0 0 12 (P2/m) n - 1
REM
REM Run started: Mon, 28 Sep 2020 15:40:29 +0100 in /lustre/scratch/uccabz1/launch_tmp/launcher_2020-09-28-12-17-21-138322
REM CASTEP 20.1 from code version af48c487+ pr-geom-scf-spinfix Tue Jun 2 15:39:59 2020 +0100
REM Functional PBE for solids (2008) Relativity Koelling-Harmon Dispersion off
REM Cut-off 340.0000 eV Grid scale 1.7500 Gmax 16.5316 1/A FBSC none
REM MP grid 3 3 2 Offset 0.000 0.000 0.000 No. kpts 6 Spacing 0.07
REM Total runtime: 7535.66 s
REM Overall efficiency: 92.3333 %
REM
REM
REM
REM compiler GCC version 4.9.2
REM options -cpp -iprefix /lustre/shared/ucl/apps/gcc/4.9.2/bin/../lib/gcc/x86_64-unknown-linux-gnu/4.9.2/ -mtune=corei7 -march=x86-64 -g -Og
REM COMMAND_LINE
REM seed 814986229 1443031637 569006355 -1535523694 -1363194360 -1215650468 1194016474 -493367901 -1625543556 -918077979 1634521916 798045375
REM
REM Se 3|2.1|7|7|9|40:41:32(qc=5)
REM Ag 3|2.2|7|7|9|40U:50:41:42(qc=5)
REM 
CELL 1.54180    5.43791    6.05319    7.78214   90.00000  108.88079   90.00000
LATT -1
SFAC Se Ag 
Se     1  0.3633130114330 -0.2500238830052 -0.3146323033536 1.0
Se     1 -0.3633130114330 -0.2500238830052  0.3146323033536 1.0
Se     1 -0.3633130114330  0.2500238830052  0.3146323033536 1.0
Se     1  0.3633130114330  0.2500238830052 -0.3146323033536 1.0
Ag     2  0.1389409193514 -0.2498613306405  0.3270000858330 1.0
Ag     2 -0.1389409193514 -0.2498613306405 -0.3270000858330 1.0
Ag     2 -0.1389409193514  0.2498613306405 -0.3270000858330 1.0
Ag     2  0.1389409193514  0.2498613306405  0.3270000858330 1.0
Ag     2 -0.2478240869177 -0.2500661482785  0.0006301978145 1.0
Ag     2  0.2478240869177 -0.2500661482785 -0.0006301978145 1.0
Ag     2  0.2478240869177  0.2500661482785 -0.0006301978145 1.0
Ag     2 -0.2478240869177  0.2500661482785  0.0006301978145 1.0
END
