TITL Ag2Se-P21c-200928-113745-dd82f2 -0.0102 230.909868 -4.61188938E+004 0 0 12 (P21/c) n - 1
REM
REM Run started: Mon, 28 Sep 2020 13:03:31 +0100 in /scratch/scratch/uccabz1/launch_tmp/launcher_2020-09-28-10-37-43-999753
REM CASTEP 19.11| from code version Version unavailable
REM Functional PBE for solids (2008) Relativity Koelling-Harmon Dispersion off
REM Cut-off 340.0000 eV Grid scale 1.7500 Gmax 16.5316 1/A FBSC none
REM MP grid 4 3 2 Offset 0.000 0.000 0.000 No. kpts 8 Spacing 0.07
REM Total runtime: 5134.75 s
REM Overall efficiency: 92.375 %
REM
REM
REM
REM compiler GCC version 4.9.2
REM options -cpp -iprefix /scratch/UCL/applications/gcc/4.9.2/bin/../lib/gcc/x86_64-unknown-linux-gnu/4.9.2/ -mtune=corei7 -march=x86-64 -g -O2
REM COMMAND_LINE
REM seed 369667687 1912535563 -1867313856 -1495696055 493825138 -284131663 -1143245748 633995259 1240031328 693460549 1745548334 18299849
REM
REM Se 3|2.1|7|7|9|40:41:32(qc=5)
REM Ag 3|2.2|7|7|9|40U:50:41:42(qc=5)
REM 
CELL 1.54180    4.25642    6.68026    8.66604   90.00000  110.43069   90.00000
LATT -1
SFAC Se Ag 
Se     1 -0.2438776189995 -0.2773697882797 -0.4062261637640 1.0
Se     1  0.2438776189995  0.2226302117203 -0.0937738362360 1.0
Se     1  0.2438776189995  0.2773697882797  0.4062261637640 1.0
Se     1 -0.2438776189995 -0.2226302117203  0.0937738362360 1.0
Ag     2 -0.1346654511144  0.3481259586126  0.0884374118458 1.0
Ag     2  0.1346654511144 -0.1518740413874  0.4115625881542 1.0
Ag     2  0.1346654511144 -0.3481259586126 -0.0884374118458 1.0
Ag     2 -0.1346654511144  0.1518740413874 -0.4115625881542 1.0
Ag     2  0.4968555952829  0.0591353560547  0.2293427213572 1.0
Ag     2 -0.4968555952829 -0.4408646439453  0.2706572786428 1.0
Ag     2 -0.4968555952829 -0.0591353560547 -0.2293427213572 1.0
Ag     2  0.4968555952829  0.4408646439453 -0.2706572786428 1.0
END
