TITL Ag2Se-P2m-200928-131005-dac5f0 -0.0271 238.355521 -4.61161186E+004 0 0 12 (P2/m) n - 1
REM
REM Run started: Mon, 28 Sep 2020 14:24:06 +0100 in /lustre/scratch/uccabz1/launch_tmp/launcher_2020-09-28-12-10-03-125218
REM CASTEP 20.1 from code version af48c487+ pr-geom-scf-spinfix Tue Jun 2 15:39:59 2020 +0100
REM Functional PBE for solids (2008) Relativity Koelling-Harmon Dispersion off
REM Cut-off 340.0000 eV Grid scale 1.7500 Gmax 16.5316 1/A FBSC none
REM MP grid 3 3 2 Offset 0.000 0.000 0.000 No. kpts 6 Spacing 0.07
REM Total runtime: 4486.9 s
REM Overall efficiency: 93.2857 %
REM
REM
REM
REM compiler GCC version 4.9.2
REM options -cpp -iprefix /lustre/shared/ucl/apps/gcc/4.9.2/bin/../lib/gcc/x86_64-unknown-linux-gnu/4.9.2/ -mtune=corei7 -march=x86-64 -g -Og
REM COMMAND_LINE
REM seed -68841113 -751396384 1710364644 748847297 -709274530 -1986510209 -476739683 1940884891 -1193933143 16043065 97184103 -1739110169
REM
REM Se 3|2.1|7|7|9|40:41:32(qc=5)
REM Ag 3|2.2|7|7|9|40U:50:41:42(qc=5)
REM 
CELL 1.54180    5.17805    5.69259    8.09089   90.00000   88.06861   90.00000
LATT -1
SFAC Se Ag 
Se     1  0.1780309114380  0.2531744012701  0.2230205638804 1.0
Se     1 -0.1780309114380  0.2531744012701 -0.2230205638804 1.0
Se     1 -0.1780309114380 -0.2531744012701 -0.2230205638804 1.0
Se     1  0.1780309114380 -0.2531744012701  0.2230205638804 1.0
Ag     2  0.2516225886076 -0.2497130742916 -0.4481248464468 1.0
Ag     2 -0.2516225886076 -0.2497130742916  0.4481248464468 1.0
Ag     2 -0.2516225886076  0.2497130742916  0.4481248464468 1.0
Ag     2  0.2516225886076  0.2497130742916 -0.4481248464468 1.0
Ag     2  0.3132452335853 -0.2500215884388 -0.1164237264655 1.0
Ag     2 -0.3132452335853 -0.2500215884388  0.1164237264655 1.0
Ag     2 -0.3132452335853  0.2500215884388  0.1164237264655 1.0
Ag     2  0.3132452335853  0.2500215884388 -0.1164237264655 1.0
END
