TITL Ag2Se-P2m-200928-123708-b38f4d 0.0301 242.071847 -4.61166528E+004 0 0 12 (P2/m) n - 1
REM
REM Run started: Mon, 28 Sep 2020 13:55:28 +0100 in /lustre/scratch/uccabz1/launch_tmp/launcher_2020-09-28-11-37-06-161006
REM CASTEP 20.1 from code version af48c487+ pr-geom-scf-spinfix Tue Jun 2 15:39:59 2020 +0100
REM Functional PBE for solids (2008) Relativity Koelling-Harmon Dispersion off
REM Cut-off 340.0000 eV Grid scale 1.7500 Gmax 16.5316 1/A FBSC none
REM MP grid 3 3 2 Offset 0.000 0.000 0.000 No. kpts 6 Spacing 0.07
REM Total runtime: 4748.94 s
REM Overall efficiency: 94.1429 %
REM
REM
REM
REM compiler GCC version 4.9.2
REM options -cpp -iprefix /lustre/shared/ucl/apps/gcc/4.9.2/bin/../lib/gcc/x86_64-unknown-linux-gnu/4.9.2/ -mtune=corei7 -march=x86-64 -g -Og
REM COMMAND_LINE
REM seed -1712837444 -178588195 -1003575125 1464139889 1038585302 270975116 1625873257 -398713323 -854684119 -33782451 -128511804 -1921034086
REM
REM Se 3|2.1|7|7|9|40:41:32(qc=5)
REM Ag 3|2.2|7|7|9|40U:50:41:42(qc=5)
REM 
CELL 1.54180    5.43539    6.05782    7.74545   90.00000  108.34401   90.00000
LATT -1
SFAC Se Ag 
Se     1  0.3682800159446 -0.2507981773944  0.1859328649700 1.0
Se     1 -0.3682800159446 -0.2507981773944 -0.1859328649700 1.0
Se     1 -0.3682800159446  0.2507981773944 -0.1859328649700 1.0
Se     1  0.3682800159446  0.2507981773944  0.1859328649700 1.0
Ag     2  0.2482596089578  0.2504733017146 -0.4999107586763 1.0
Ag     2 -0.2482596089578  0.2504733017146  0.4999107586763 1.0
Ag     2 -0.2482596089578 -0.2504733017146  0.4999107586763 1.0
Ag     2  0.2482596089578 -0.2504733017146 -0.4999107586763 1.0
Ag     2 -0.1334506828888  0.2475755461735  0.1713554855791 1.0
Ag     2  0.1334506828888  0.2475755461735 -0.1713554855791 1.0
Ag     2  0.1334506828888 -0.2475755461735 -0.1713554855791 1.0
Ag     2 -0.1334506828888 -0.2475755461735  0.1713554855791 1.0
END
