TITL Ag2Se-P2m-200928-132857-a07f7e 0.0465 242.291054 -4.61166519E+004 0 0 12 (P2/m) n - 1
REM
REM Run started: Mon, 28 Sep 2020 15:13:03 +0100 in /lustre/scratch/uccabz1/launch_tmp/launcher_2020-09-28-12-28-54-556704
REM CASTEP 20.1 from code version af48c487+ pr-geom-scf-spinfix Tue Jun 2 15:39:59 2020 +0100
REM Functional PBE for solids (2008) Relativity Koelling-Harmon Dispersion off
REM Cut-off 340.0000 eV Grid scale 1.7500 Gmax 16.5316 1/A FBSC none
REM MP grid 3 3 2 Offset 0.000 0.000 0.000 No. kpts 6 Spacing 0.07
REM Total runtime: 5922.08 s
REM Overall efficiency: 96.25 %
REM
REM
REM
REM compiler GCC version 4.9.2
REM options -cpp -iprefix /lustre/shared/ucl/apps/gcc/4.9.2/bin/../lib/gcc/x86_64-unknown-linux-gnu/4.9.2/ -mtune=corei7 -march=x86-64 -g -Og
REM COMMAND_LINE
REM seed 1647480598 441710341 1765102079 -2094311610 533345775 -348802475 422803562 -948496119 1138983031 -1185981095 22510219 -379642518
REM
REM Se 3|2.1|7|7|9|40:41:32(qc=5)
REM Ag 3|2.2|7|7|9|40U:50:41:42(qc=5)
REM 
CELL 1.54180    5.43447    6.06824    7.73829   90.00000  108.29565   90.00000
LATT -1
SFAC Se Ag 
Se     1 -0.1320354400359 -0.2468367788305  0.1855704891799 1.0
Se     1  0.1320354400359 -0.2468367788305 -0.1855704891799 1.0
Se     1  0.1320354400359  0.2468367788305 -0.1855704891799 1.0
Se     1 -0.1320354400359  0.2468367788305  0.1855704891799 1.0
Ag     2 -0.2524655167211 -0.2532221075347 -0.5009054727953 1.0
Ag     2  0.2524655167211 -0.2532221075347  0.5009054727953 1.0
Ag     2  0.2524655167211  0.2532221075347  0.5009054727953 1.0
Ag     2 -0.2524655167211  0.2532221075347 -0.5009054727953 1.0
Ag     2  0.3661892023418 -0.2544675109017  0.1710408940220 1.0
Ag     2 -0.3661892023418 -0.2544675109017 -0.1710408940220 1.0
Ag     2 -0.3661892023418  0.2544675109017 -0.1710408940220 1.0
Ag     2  0.3661892023418  0.2544675109017  0.1710408940220 1.0
END
