TITL Ag2Se-P2m-200928-092950-93e703 -0.0307 232.203355 -4.61165493E+004 0 0 12 (Pmma) n - 1
REM
REM Run started: Mon, 28 Sep 2020 10:46:08 +0100 in /lustre/scratch/uccabz1/launch_tmp/launcher_2020-09-28-08-29-47-071246
REM CASTEP 20.1 from code version af48c487+ pr-geom-scf-spinfix Tue Jun 2 15:39:59 2020 +0100
REM Functional PBE for solids (2008) Relativity Koelling-Harmon Dispersion off
REM Cut-off 340.0000 eV Grid scale 1.7500 Gmax 16.5316 1/A FBSC none
REM MP grid 3 3 2 Offset 0.000 0.000 0.000 No. kpts 6 Spacing 0.07
REM Total runtime: 4622.33 s
REM Overall efficiency: 93.8571 %
REM
REM
REM
REM compiler GCC version 4.9.2
REM options -cpp -iprefix /lustre/shared/ucl/apps/gcc/4.9.2/bin/../lib/gcc/x86_64-unknown-linux-gnu/4.9.2/ -mtune=corei7 -march=x86-64 -g -Og
REM COMMAND_LINE
REM seed -1356778647 -2020432741 1961690303 572143942 1809600704 1197731846 -437904373 -1834980243 2098935687 -689602258 26133479 -1670095228
REM
REM Se 3|2.1|7|7|9|40:41:32(qc=5)
REM Ag 3|2.2|7|7|9|40U:50:41:42(qc=5)
REM 
CELL 1.54180    4.88678    5.71246    8.31806   90.00000   89.98202   90.00000
LATT -1
SFAC Se Ag 
Se     1 -0.2560309052164  0.2513134728720  0.2494097020927 1.0
Se     1  0.2560309052164  0.2513134728720 -0.2494097020927 1.0
Se     1  0.2560309052164 -0.2513134728720 -0.2494097020927 1.0
Se     1 -0.2560309052164 -0.2513134728720  0.2494097020927 1.0
Ag     2 -0.2484464913791  0.2498390595924 -0.4174146965408 1.0
Ag     2  0.2484464913791  0.2498390595924  0.4174146965408 1.0
Ag     2  0.2484464913791 -0.2498390595924  0.4174146965408 1.0
Ag     2 -0.2484464913791 -0.2498390595924 -0.4174146965408 1.0
Ag     2 -0.2481414525153  0.2501922863016 -0.0834964206818 1.0
Ag     2  0.2481414525153  0.2501922863016  0.0834964206818 1.0
Ag     2  0.2481414525153 -0.2501922863016  0.0834964206818 1.0
Ag     2 -0.2481414525153 -0.2501922863016 -0.0834964206818 1.0
END
