TITL Ag2Se-P21c-200928-093404-58dc03 -0.0178 243.950699 -4.61187987E+004 0 0 12 (P21/c) n - 1
REM
REM Run started: Mon, 28 Sep 2020 10:15:33 +0100 in /lustre/scratch/uccabz1/launch_tmp/launcher_2020-09-28-08-34-01-705428
REM CASTEP 20.1 from code version af48c487+ pr-geom-scf-spinfix Tue Jun 2 15:39:59 2020 +0100
REM Functional PBE for solids (2008) Relativity Koelling-Harmon Dispersion off
REM Cut-off 340.0000 eV Grid scale 1.7500 Gmax 16.5316 1/A FBSC none
REM MP grid 4 3 2 Offset 0.000 0.000 0.000 No. kpts 8 Spacing 0.07
REM Total runtime: 2530.52 s
REM Overall efficiency: 91.6667 %
REM
REM
REM
REM compiler GCC version 4.9.2
REM options -cpp -iprefix /lustre/shared/ucl/apps/gcc/4.9.2/bin/../lib/gcc/x86_64-unknown-linux-gnu/4.9.2/ -mtune=corei7 -march=x86-64 -g -Og
REM COMMAND_LINE
REM seed 1212926378 -1545922647 -1616343575 -1196713525 1181782215 1825064970 -1010742253 1913990499 391132982 384751521 1193854981 461765180
REM
REM Se 3|2.1|7|7|9|40:41:32(qc=5)
REM Ag 3|2.2|7|7|9|40U:50:41:42(qc=5)
REM 
CELL 1.54180    4.50835    6.06115    9.04159   90.00000   99.11214   90.00000
LATT -1
SFAC Se Ag 
Se     1 -0.3002022072966 -0.2374886380787  0.0963089721266 1.0
Se     1  0.3002022072966  0.2625113619213  0.4036910278734 1.0
Se     1  0.3002022072966  0.2374886380787 -0.0963089721266 1.0
Se     1 -0.3002022072966 -0.2625113619213 -0.4036910278734 1.0
Ag     2 -0.2138869421409 -0.4946359832412  0.3431721390483 1.0
Ag     2  0.2138869421409  0.0053640167588  0.1568278609517 1.0
Ag     2  0.2138869421409  0.4946359832412 -0.3431721390483 1.0
Ag     2 -0.2138869421409 -0.0053640167588 -0.1568278609517 1.0
Ag     2 -0.2065646353638  0.4929902501362 -0.1424448706684 1.0
Ag     2  0.2065646353638 -0.0070097498638 -0.3575551293316 1.0
Ag     2  0.2065646353638 -0.4929902501362  0.1424448706684 1.0
Ag     2 -0.2065646353638  0.0070097498638  0.3575551293316 1.0
END
