TITL Ag2Se-P21c-200928-120944-81e2e6 -0.0168 227.618750 -4.61189185E+004 0 0 12 (P21/c) n - 1
REM
REM Run started: Mon, 28 Sep 2020 13:27:53 +0100 in /lustre/scratch/uccabz1/launch_tmp/launcher_2020-09-28-11-09-42-595679
REM CASTEP 20.1 from code version af48c487+ pr-geom-scf-spinfix Tue Jun 2 15:39:59 2020 +0100
REM Functional PBE for solids (2008) Relativity Koelling-Harmon Dispersion off
REM Cut-off 340.0000 eV Grid scale 1.7500 Gmax 16.5316 1/A FBSC none
REM MP grid 4 2 3 Offset 0.000 0.000 0.000 No. kpts 6 Spacing 0.07
REM Total runtime: 4739.04 s
REM Overall efficiency: 93.5714 %
REM
REM
REM
REM compiler GCC version 4.9.2
REM options -cpp -iprefix /lustre/shared/ucl/apps/gcc/4.9.2/bin/../lib/gcc/x86_64-unknown-linux-gnu/4.9.2/ -mtune=corei7 -march=x86-64 -g -Og
REM COMMAND_LINE
REM seed 1309390818 2038804956 -914005170 -929306039 2066024352 -828994021 1899472300 -862618685 1821296636 128897440 1240138564 -705525727
REM
REM Se 3|2.1|7|7|9|40:41:32(qc=5)
REM Ag 3|2.2|7|7|9|40U:50:41:42(qc=5)
REM 
CELL 1.54180    4.02879    8.58949    6.78823   90.00000  104.31120   90.00000
LATT -1
SFAC Se Ag 
Se     1  0.3363252720839 -0.3732313858783 -0.2133911497161 1.0
Se     1 -0.3363252720839  0.1267686141217 -0.2866088502839 1.0
Se     1 -0.3363252720839  0.3732313858783  0.2133911497161 1.0
Se     1  0.3363252720839 -0.1267686141217  0.2866088502839 1.0
Ag     2 -0.2689690701729 -0.1230769206703 -0.0113461253910 1.0
Ag     2  0.2689690701729  0.3769230793297  0.5113461253910 1.0
Ag     2  0.2689690701729  0.1230769206703  0.0113461253910 1.0
Ag     2 -0.2689690701729 -0.3769230793297 -0.5113461253910 1.0
Ag     2 -0.0861189926609  0.1011366800915  0.3362902533319 1.0
Ag     2  0.0861189926609 -0.3988633199085  0.1637097466681 1.0
Ag     2  0.0861189926609 -0.1011366800915 -0.3362902533319 1.0
Ag     2 -0.0861189926609  0.3988633199085 -0.1637097466681 1.0
END
