TITL Ag2Se-P21c-200928-114101-25d351 -0.0016 232.333425 -4.61189152E+004 0 0 12 (P21/c) n - 1
REM
REM Run started: Mon, 28 Sep 2020 13:24:30 +0100 in /lustre/scratch/uccabz1/launch_tmp/launcher_2020-09-28-10-40-59-510007
REM CASTEP 20.1 from code version af48c487+ pr-geom-scf-spinfix Tue Jun 2 15:39:59 2020 +0100
REM Functional PBE for solids (2008) Relativity Koelling-Harmon Dispersion off
REM Cut-off 340.0000 eV Grid scale 1.7500 Gmax 16.5316 1/A FBSC none
REM MP grid 4 3 2 Offset 0.000 0.000 0.000 No. kpts 8 Spacing 0.07
REM Total runtime: 6250.46 s
REM Overall efficiency: 94.3 %
REM
REM
REM
REM compiler GCC version 4.9.2
REM options -cpp -iprefix /lustre/shared/ucl/apps/gcc/4.9.2/bin/../lib/gcc/x86_64-unknown-linux-gnu/4.9.2/ -mtune=corei7 -march=x86-64 -g -Og
REM COMMAND_LINE
REM seed 75872021 -91598286 1829484600 -707365638 -1630156238 1236975203 1562399017 1874398537 -2097121222 -59886831 -68861401 1915446029
REM
REM Se 3|2.1|7|7|9|40:41:32(qc=5)
REM Ag 3|2.2|7|7|9|40U:50:41:42(qc=5)
REM 
CELL 1.54180    4.16874    6.99858    8.45876   90.00000  109.70621   90.00000
LATT -1
SFAC Se Ag 
Se     1  0.2230368851037 -0.2185454716478 -0.0990197183440 1.0
Se     1 -0.2230368851037  0.2814545283522 -0.4009802816560 1.0
Se     1 -0.2230368851037  0.2185454716478  0.0990197183440 1.0
Se     1  0.2230368851037 -0.2814545283522  0.4009802816560 1.0
Ag     2 -0.5260353355047  0.0762553398098 -0.2247695423898 1.0
Ag     2  0.5260353355047 -0.4237446601902 -0.2752304576102 1.0
Ag     2  0.5260353355047 -0.0762553398098  0.2247695423898 1.0
Ag     2 -0.5260353355047  0.4237446601902  0.2752304576102 1.0
Ag     2  0.1706198747436  0.3778998517489 -0.0846590221573 1.0
Ag     2 -0.1706198747436 -0.1221001482511 -0.4153409778427 1.0
Ag     2 -0.1706198747436 -0.3778998517489  0.0846590221573 1.0
Ag     2  0.1706198747436  0.1221001482511  0.4153409778427 1.0
END
