TITL Ag2Se-P21c-200928-100354-dddb58 0.0125 239.548506 -4.61176849E+004 0 0 12 (P21/c) n - 1
REM
REM Run started: Mon, 28 Sep 2020 11:23:49 +0100 in /scratch/scratch/uccabz1/launch_tmp/launcher_2020-09-28-09-03-53-168581
REM CASTEP 19.11| from code version Version unavailable
REM Functional PBE for solids (2008) Relativity Koelling-Harmon Dispersion off
REM Cut-off 340.0000 eV Grid scale 1.7500 Gmax 16.5316 1/A FBSC none
REM MP grid 4 3 2 Offset 0.000 0.000 0.000 No. kpts 8 Spacing 0.07
REM Total runtime: 4847.88 s
REM Overall efficiency: 94.5714 %
REM
REM
REM
REM compiler GCC version 4.9.2
REM options -cpp -iprefix /scratch/UCL/applications/gcc/4.9.2/bin/../lib/gcc/x86_64-unknown-linux-gnu/4.9.2/ -mtune=corei7 -march=x86-64 -g -O2
REM COMMAND_LINE
REM seed -1272350591 1320893417 536450044 -1450934802 1580228430 -587151259 -1600137110 -896764989 858109712 -1692281458 -1358829419 -786419351
REM
REM Se 3|2.1|7|7|9|40:41:32(qc=5)
REM Ag 3|2.2|7|7|9|40U:50:41:42(qc=5)
REM 
CELL 1.54180    4.68979    6.70921    7.98500   90.00000  107.55263   90.00000
LATT -1
SFAC Se Ag 
Se     1 -0.4290676128447  0.4585420373249  0.2868728058346 1.0
Se     1 -0.0709323871553 -0.0414579626751 -0.2868728058346 1.0
Se     1  0.4290676128447 -0.4585420373249 -0.2868728058346 1.0
Se     1  0.0709323871553  0.0414579626751  0.2868728058346 1.0
Ag     2 -0.2650699765572  0.1270228684938 -0.0293404992402 1.0
Ag     2 -0.2349300234428 -0.3729771315062  0.0293404992402 1.0
Ag     2  0.2650699765572 -0.1270228684938  0.0293404992402 1.0
Ag     2  0.2349300234428  0.3729771315062 -0.0293404992402 1.0
Ag     2 -0.1236742930726  0.3687094320919 -0.3747740088094 1.0
Ag     2 -0.3763257069274 -0.1312905679081  0.3747740088094 1.0
Ag     2  0.1236742930726 -0.3687094320919  0.3747740088094 1.0
Ag     2  0.3763257069274  0.1312905679081 -0.3747740088094 1.0
END
