TITL Ag2Se-P2m-200928-092950-c6d943 0.0129 242.396934 -4.61166513E+004 0 0 12 (P2/m) n - 1
REM
REM Run started: Mon, 28 Sep 2020 10:48:55 +0100 in /lustre/scratch/uccabz1/launch_tmp/launcher_2020-09-28-08-29-47-284468
REM CASTEP 20.1 from code version af48c487+ pr-geom-scf-spinfix Tue Jun 2 15:39:59 2020 +0100
REM Functional PBE for solids (2008) Relativity Koelling-Harmon Dispersion off
REM Cut-off 340.0000 eV Grid scale 1.7500 Gmax 16.5316 1/A FBSC none
REM MP grid 3 3 2 Offset 0.000 0.000 0.000 No. kpts 6 Spacing 0.07
REM Total runtime: 4792.94 s
REM Overall efficiency: 93.8571 %
REM
REM
REM
REM compiler GCC version 4.9.2
REM options -cpp -iprefix /lustre/shared/ucl/apps/gcc/4.9.2/bin/../lib/gcc/x86_64-unknown-linux-gnu/4.9.2/ -mtune=corei7 -march=x86-64 -g -Og
REM COMMAND_LINE
REM seed -1635814219 1772076981 1547301310 -1775521171 803023634 268427381 -1531754811 -69814199 1758477146 1469344271 678256851 -841854562
REM
REM Se 3|2.1|7|7|9|40:41:32(qc=5)
REM Ag 3|2.2|7|7|9|40U:50:41:42(qc=5)
REM 
CELL 1.54180    5.43703    6.05699    7.78374   90.00000  108.98063   90.00000
LATT -1
SFAC Se Ag 
Se     1  0.3633715952577 -0.2503786594535 -0.3143510106753 1.0
Se     1 -0.3633715952577 -0.2503786594535  0.3143510106753 1.0
Se     1 -0.3633715952577  0.2503786594535  0.3143510106753 1.0
Se     1  0.3633715952577  0.2503786594535 -0.3143510106753 1.0
Ag     2 -0.1396996747728 -0.2494235668058 -0.3277291639354 1.0
Ag     2  0.1396996747728 -0.2494235668058  0.3277291639354 1.0
Ag     2  0.1396996747728  0.2494235668058  0.3277291639354 1.0
Ag     2 -0.1396996747728  0.2494235668058 -0.3277291639354 1.0
Ag     2  0.2474507755600  0.2499389078169  0.0001159632550 1.0
Ag     2 -0.2474507755600  0.2499389078169 -0.0001159632550 1.0
Ag     2 -0.2474507755600 -0.2499389078169 -0.0001159632550 1.0
Ag     2  0.2474507755600 -0.2499389078169  0.0001159632550 1.0
END
