TITL Ag2Se-P21c-200928-103830-ff90bb -0.0035 224.240328 -4.61189753E+004 0 0 12 (P21/c) n - 1
REM
REM Run started: Mon, 28 Sep 2020 11:20:08 +0100 in /lustre/scratch/uccabz1/launch_tmp/launcher_2020-09-28-09-38-28-837388
REM CASTEP 20.1 from code version af48c487+ pr-geom-scf-spinfix Tue Jun 2 15:39:59 2020 +0100
REM Functional PBE for solids (2008) Relativity Koelling-Harmon Dispersion off
REM Cut-off 340.0000 eV Grid scale 1.7500 Gmax 16.5316 1/A FBSC none
REM MP grid 4 3 2 Offset 0.000 0.000 0.000 No. kpts 8 Spacing 0.07
REM Total runtime: 2541.45 s
REM Overall efficiency: 92.1667 %
REM
REM
REM
REM compiler GCC version 4.9.2
REM options -cpp -iprefix /lustre/shared/ucl/apps/gcc/4.9.2/bin/../lib/gcc/x86_64-unknown-linux-gnu/4.9.2/ -mtune=corei7 -march=x86-64 -g -Og
REM COMMAND_LINE
REM seed 2102628427 1732665505 -694307399 -1300172929 1752892847 -608836098 -138635938 -1274774063 -559450090 2143553116 2003952422 218389029
REM
REM Se 3|2.1|7|7|9|40:41:32(qc=5)
REM Ag 3|2.2|7|7|9|40U:50:41:42(qc=5)
REM 
CELL 1.54180    4.11408    6.59368    8.95099   90.00000  112.55512   90.00000
LATT -1
SFAC Se Ag 
Se     1 -0.3169492344092 -0.1993450840801 -0.1031719076095 1.0
Se     1  0.3169492344092  0.3006549159199 -0.3968280923905 1.0
Se     1  0.3169492344092  0.1993450840801  0.1031719076095 1.0
Se     1 -0.3169492344092 -0.3006549159199  0.3968280923905 1.0
Ag     2  0.3231761281411 -0.1269340643837 -0.4232832363706 1.0
Ag     2 -0.3231761281411  0.3730659356163 -0.0767167636294 1.0
Ag     2 -0.3231761281411  0.1269340643837  0.4232832363706 1.0
Ag     2  0.3231761281411 -0.3730659356163  0.0767167636294 1.0
Ag     2 -0.0141720048942 -0.0875319021719  0.2248592686462 1.0
Ag     2  0.0141720048942  0.4124680978281  0.2751407313538 1.0
Ag     2  0.0141720048942  0.0875319021719 -0.2248592686462 1.0
Ag     2 -0.0141720048942 -0.4124680978281 -0.2751407313538 1.0
END
