TITL Ag2Se-P2m-200928-130533-2ee0ef 0.0155 242.550313 -4.61166508E+004 0 0 12 (P2/m) n - 1
REM
REM Run started: Mon, 28 Sep 2020 14:43:17 +0100 in /lustre/scratch/uccabz1/launch_tmp/launcher_2020-09-28-12-05-32-005385
REM CASTEP 20.1 from code version af48c487+ pr-geom-scf-spinfix Tue Jun 2 15:39:59 2020 +0100
REM Functional PBE for solids (2008) Relativity Koelling-Harmon Dispersion off
REM Cut-off 340.0000 eV Grid scale 1.7500 Gmax 16.5316 1/A FBSC none
REM MP grid 3 3 2 Offset 0.000 0.000 0.000 No. kpts 6 Spacing 0.07
REM Total runtime: 5910.05 s
REM Overall efficiency: 94.125 %
REM
REM
REM
REM compiler GCC version 4.9.2
REM options -cpp -iprefix /lustre/shared/ucl/apps/gcc/4.9.2/bin/../lib/gcc/x86_64-unknown-linux-gnu/4.9.2/ -mtune=corei7 -march=x86-64 -g -Og
REM COMMAND_LINE
REM seed 800208728 -1749143813 1829426813 1796881568 1922253519 928927246 1140695963 524849715 195831247 -1778765487 -1890390305 -103871328
REM
REM Se 3|2.1|7|7|9|40:41:32(qc=5)
REM Ag 3|2.2|7|7|9|40U:50:41:42(qc=5)
REM 
CELL 1.54180    5.43458    6.07301    7.74860   90.00000  108.47969   90.00000
LATT -1
SFAC Se Ag 
Se     1 -0.1328086239432  0.2544895393883  0.1851828473848 1.0
Se     1  0.1328086239432  0.2544895393883 -0.1851828473848 1.0
Se     1  0.1328086239432 -0.2544895393883 -0.1851828473848 1.0
Se     1 -0.1328086239432 -0.2544895393883  0.1851828473848 1.0
Ag     2 -0.2524601830369  0.2467955956050 -0.5000216907741 1.0
Ag     2  0.2524601830369  0.2467955956050  0.5000216907741 1.0
Ag     2  0.2524601830369 -0.2467955956050  0.5000216907741 1.0
Ag     2 -0.2524601830369 -0.2467955956050 -0.5000216907741 1.0
Ag     2 -0.3650642796069  0.2458144499504 -0.1717454393824 1.0
Ag     2  0.3650642796069  0.2458144499504  0.1717454393824 1.0
Ag     2  0.3650642796069 -0.2458144499504  0.1717454393824 1.0
Ag     2 -0.3650642796069 -0.2458144499504 -0.1717454393824 1.0
END
