TITL Ag2Se-P2m-200928-131445-b1c68e 0.0364 241.816836 -4.61166533E+004 0 0 12 (P2/m) n - 1
REM
REM Run started: Mon, 28 Sep 2020 14:20:45 +0100 in /lustre/scratch/uccabz1/launch_tmp/launcher_2020-09-28-12-14-42-926375
REM CASTEP 20.1 from code version af48c487+ pr-geom-scf-spinfix Tue Jun 2 15:39:59 2020 +0100
REM Functional PBE for solids (2008) Relativity Koelling-Harmon Dispersion off
REM Cut-off 340.0000 eV Grid scale 1.7500 Gmax 16.5316 1/A FBSC none
REM MP grid 3 3 2 Offset 0.000 0.000 0.000 No. kpts 6 Spacing 0.07
REM Total runtime: 4010.69 s
REM Overall efficiency: 93.8333 %
REM
REM
REM
REM compiler GCC version 4.9.2
REM options -cpp -iprefix /lustre/shared/ucl/apps/gcc/4.9.2/bin/../lib/gcc/x86_64-unknown-linux-gnu/4.9.2/ -mtune=corei7 -march=x86-64 -g -Og
REM COMMAND_LINE
REM seed -502451351 -422316079 862250927 -275761953 995860005 1668706465 -691512744 1090325893 1359272465 -576094446 1262947466 -156398327
REM
REM Se 3|2.1|7|7|9|40:41:32(qc=5)
REM Ag 3|2.2|7|7|9|40U:50:41:42(qc=5)
REM 
CELL 1.54180    5.43284    6.05008    7.74457   90.00000  108.20382   90.00000
LATT -1
SFAC Se Ag 
Se     1  0.3686698895896  0.2498500359639  0.1857662374575 1.0
Se     1 -0.3686698895896  0.2498500359639 -0.1857662374575 1.0
Se     1 -0.3686698895896 -0.2498500359639 -0.1857662374575 1.0
Se     1  0.3686698895896 -0.2498500359639  0.1857662374575 1.0
Ag     2 -0.2479269515895  0.2511366884711  0.5002008659708 1.0
Ag     2  0.2479269515895  0.2511366884711 -0.5002008659708 1.0
Ag     2  0.2479269515895 -0.2511366884711 -0.5002008659708 1.0
Ag     2 -0.2479269515895 -0.2511366884711  0.5002008659708 1.0
Ag     2 -0.1330703993713 -0.2491058363441  0.1710188017660 1.0
Ag     2  0.1330703993713 -0.2491058363441 -0.1710188017660 1.0
Ag     2  0.1330703993713  0.2491058363441 -0.1710188017660 1.0
Ag     2 -0.1330703993713  0.2491058363441  0.1710188017660 1.0
END
