TITL Ag2Se-P2m-200928-122111-44df17 -0.0080 242.279093 -4.61166542E+004 0 0 12 (P2/m) n - 1
REM
REM Run started: Mon, 28 Sep 2020 13:32:22 +0100 in /scratch/scratch/uccabz1/launch_tmp/launcher_2020-09-28-11-21-08-711784
REM CASTEP 19.11| from code version Version unavailable
REM Functional PBE for solids (2008) Relativity Koelling-Harmon Dispersion off
REM Cut-off 340.0000 eV Grid scale 1.7500 Gmax 16.5316 1/A FBSC none
REM MP grid 3 3 2 Offset 0.000 0.000 0.000 No. kpts 6 Spacing 0.07
REM Total runtime: 4500.86 s
REM Overall efficiency: 96.5 %
REM
REM
REM
REM compiler GCC version 4.9.2
REM options -cpp -iprefix /scratch/UCL/applications/gcc/4.9.2/bin/../lib/gcc/x86_64-unknown-linux-gnu/4.9.2/ -mtune=corei7 -march=x86-64 -g -O2
REM COMMAND_LINE
REM seed -1179028289 -1378611197 1316081758 1246899792 1380980664 -513130940 1624218339 56456811 1861368849 -8964200 -1107770219 1015427602
REM
REM Se 3|2.1|7|7|9|40:41:32(qc=5)
REM Ag 3|2.2|7|7|9|40U:50:41:42(qc=5)
REM 
CELL 1.54180    5.43856    6.06026    7.75157   90.00000  108.50213   90.00000
LATT -1
SFAC Se Ag 
Se     1  0.3666865267988 -0.2503899858461  0.1855297302707 1.0
Se     1 -0.3666865267988 -0.2503899858461 -0.1855297302707 1.0
Se     1 -0.3666865267988  0.2503899858461 -0.1855297302707 1.0
Se     1  0.3666865267988  0.2503899858461  0.1855297302707 1.0
Ag     2 -0.1344307019612 -0.2516976885808  0.1716500869712 1.0
Ag     2  0.1344307019612 -0.2516976885808 -0.1716500869712 1.0
Ag     2  0.1344307019612  0.2516976885808 -0.1716500869712 1.0
Ag     2 -0.1344307019612  0.2516976885808  0.1716500869712 1.0
Ag     2 -0.2480534722733  0.2486588629541  0.4994300995834 1.0
Ag     2  0.2480534722733  0.2486588629541 -0.4994300995834 1.0
Ag     2  0.2480534722733 -0.2486588629541 -0.4994300995834 1.0
Ag     2 -0.2480534722733 -0.2486588629541  0.4994300995834 1.0
END
