TITL Ag2Se-P2m-200928-092950-c661cd -0.0022 242.200142 -4.61166521E+004 0 0 12 (P2/m) n - 1
REM
REM Run started: Mon, 28 Sep 2020 11:13:38 +0100 in /lustre/scratch/uccabz1/launch_tmp/launcher_2020-09-28-08-29-47-070133
REM CASTEP 20.1 from code version af48c487+ pr-geom-scf-spinfix Tue Jun 2 15:39:59 2020 +0100
REM Functional PBE for solids (2008) Relativity Koelling-Harmon Dispersion off
REM Cut-off 340.0000 eV Grid scale 1.7500 Gmax 16.5316 1/A FBSC none
REM MP grid 3 3 2 Offset 0.000 0.000 0.000 No. kpts 6 Spacing 0.07
REM Total runtime: 6276.26 s
REM Overall efficiency: 94.125 %
REM
REM
REM
REM compiler GCC version 4.9.2
REM options -cpp -iprefix /lustre/shared/ucl/apps/gcc/4.9.2/bin/../lib/gcc/x86_64-unknown-linux-gnu/4.9.2/ -mtune=corei7 -march=x86-64 -g -Og
REM COMMAND_LINE
REM seed -1833681444 -2015760764 151425205 -58634979 -1756846574 220257648 -1146730309 1095959437 -1569560220 1103032548 1259290583 789178425
REM
REM Se 3|2.1|7|7|9|40:41:32(qc=5)
REM Ag 3|2.2|7|7|9|40U:50:41:42(qc=5)
REM 
CELL 1.54180    5.43574    6.05957    7.74802   90.00000  108.37081   90.00000
LATT -1
SFAC Se Ag 
Se     1 -0.3677636715829  0.2535128445704 -0.1852761159799 1.0
Se     1  0.3677636715829  0.2535128445704  0.1852761159799 1.0
Se     1  0.3677636715829 -0.2535128445704  0.1852761159799 1.0
Se     1 -0.3677636715829 -0.2535128445704 -0.1852761159799 1.0
Ag     2  0.2478204469288 -0.2479397346113 -0.5001347206472 1.0
Ag     2 -0.2478204469288 -0.2479397346113  0.5001347206472 1.0
Ag     2 -0.2478204469288  0.2479397346113  0.5001347206472 1.0
Ag     2  0.2478204469288  0.2479397346113 -0.5001347206472 1.0
Ag     2 -0.1343063688795  0.2466180294418  0.1712351715244 1.0
Ag     2  0.1343063688795  0.2466180294418 -0.1712351715244 1.0
Ag     2  0.1343063688795 -0.2466180294418 -0.1712351715244 1.0
Ag     2 -0.1343063688795 -0.2466180294418  0.1712351715244 1.0
END
