TITL Ag2Se-P2m-200928-134826-9f5fae -0.0022 242.928847 -4.61166509E+004 0 0 12 (P2/m) n - 1
REM
REM Run started: Mon, 28 Sep 2020 15:21:38 +0100 in /lustre/scratch/uccabz1/launch_tmp/launcher_2020-09-28-12-48-24-482628
REM CASTEP 20.1 from code version af48c487+ pr-geom-scf-spinfix Tue Jun 2 15:39:59 2020 +0100
REM Functional PBE for solids (2008) Relativity Koelling-Harmon Dispersion off
REM Cut-off 340.0000 eV Grid scale 1.7500 Gmax 16.5316 1/A FBSC none
REM MP grid 3 3 2 Offset 0.000 0.000 0.000 No. kpts 6 Spacing 0.07
REM Total runtime: 5155.76 s
REM Overall efficiency: 94 %
REM
REM
REM
REM compiler GCC version 4.9.2
REM options -cpp -iprefix /lustre/shared/ucl/apps/gcc/4.9.2/bin/../lib/gcc/x86_64-unknown-linux-gnu/4.9.2/ -mtune=corei7 -march=x86-64 -g -Og
REM COMMAND_LINE
REM seed -1347715262 -325722884 625949233 14064882 -324862251 -1115128633 36526796 1600434118 -2051895762 -505761328 -408908782 282002431
REM
REM Se 3|2.1|7|7|9|40:41:32(qc=5)
REM Ag 3|2.2|7|7|9|40U:50:41:42(qc=5)
REM 
CELL 1.54180    5.43378    6.08140    7.74888   90.00000  108.42983   90.00000
LATT -1
SFAC Se Ag 
Se     1 -0.3665737291161 -0.2534250769430  0.3142458797599 1.0
Se     1  0.3665737291161 -0.2534250769430 -0.3142458797599 1.0
Se     1  0.3665737291161  0.2534250769430 -0.3142458797599 1.0
Se     1 -0.3665737291161  0.2534250769430  0.3142458797599 1.0
Ag     2 -0.1354030399043 -0.2455449310953 -0.3284455484698 1.0
Ag     2  0.1354030399043 -0.2455449310953  0.3284455484698 1.0
Ag     2  0.1354030399043  0.2455449310953  0.3284455484698 1.0
Ag     2 -0.1354030399043  0.2455449310953 -0.3284455484698 1.0
Ag     2 -0.2475048361862  0.2467570236979  0.0003076810040 1.0
Ag     2  0.2475048361862  0.2467570236979 -0.0003076810040 1.0
Ag     2  0.2475048361862 -0.2467570236979 -0.0003076810040 1.0
Ag     2 -0.2475048361862 -0.2467570236979  0.0003076810040 1.0
END
