TITL Ag2Se-P21c-200928-110138-094a33 0.0375 227.778584 -4.61188718E+004 0 0 12 (P21/c) n - 1
REM
REM Run started: Mon, 28 Sep 2020 12:08:44 +0100 in /lustre/scratch/uccabz1/launch_tmp/launcher_2020-09-28-10-01-37-117325
REM CASTEP 20.1 from code version af48c487+ pr-geom-scf-spinfix Tue Jun 2 15:39:59 2020 +0100
REM Functional PBE for solids (2008) Relativity Koelling-Harmon Dispersion off
REM Cut-off 340.0000 eV Grid scale 1.7500 Gmax 16.5316 1/A FBSC none
REM MP grid 4 3 2 Offset 0.000 0.000 0.000 No. kpts 8 Spacing 0.07
REM Total runtime: 4070.87 s
REM Overall efficiency: 93.1429 %
REM
REM
REM
REM compiler GCC version 4.9.2
REM options -cpp -iprefix /lustre/shared/ucl/apps/gcc/4.9.2/bin/../lib/gcc/x86_64-unknown-linux-gnu/4.9.2/ -mtune=corei7 -march=x86-64 -g -Og
REM COMMAND_LINE
REM seed 1324203056 -1386730786 1134318851 -1612417630 218124366 1072224254 274693020 490556062 1298570127 1746705170 -1081590535 787888260
REM
REM Se 3|2.1|7|7|9|40:41:32(qc=5)
REM Ag 3|2.2|7|7|9|40U:50:41:42(qc=5)
REM 
CELL 1.54180    4.27674    6.57385    8.61805   90.00000  109.93260   90.00000
LATT -1
SFAC Se Ag 
Se     1 -0.1740849829223 -0.2125796647516 -0.3782600565989 1.0
Se     1  0.1740849829223  0.2874203352484 -0.1217399434011 1.0
Se     1  0.1740849829223  0.2125796647516  0.3782600565989 1.0
Se     1 -0.1740849829223 -0.2874203352484  0.1217399434011 1.0
Ag     2  0.2099865272602 -0.1439590378367 -0.0572608721703 1.0
Ag     2 -0.2099865272602  0.3560409621633 -0.4427391278297 1.0
Ag     2 -0.2099865272602  0.1439590378367  0.0572608721703 1.0
Ag     2  0.2099865272602 -0.3560409621633  0.4427391278297 1.0
Ag     2 -0.4497502480024 -0.0601775498585  0.2938698194737 1.0
Ag     2  0.4497502480024  0.4398224501415  0.2061301805263 1.0
Ag     2  0.4497502480024  0.0601775498585 -0.2938698194737 1.0
Ag     2 -0.4497502480024 -0.4398224501415 -0.2061301805263 1.0
END
