TITL Ag2Se-P2m-200928-133606-552ca0 0.0363 242.268432 -4.61166541E+004 0 0 12 (P2/m) n - 1
REM
REM Run started: Mon, 28 Sep 2020 15:15:26 +0100 in /lustre/scratch/uccabz1/launch_tmp/launcher_2020-09-28-12-36-03-593572
REM CASTEP 20.1 from code version af48c487+ pr-geom-scf-spinfix Tue Jun 2 15:39:59 2020 +0100
REM Functional PBE for solids (2008) Relativity Koelling-Harmon Dispersion off
REM Cut-off 340.0000 eV Grid scale 1.7500 Gmax 16.5316 1/A FBSC none
REM MP grid 3 3 2 Offset 0.000 0.000 0.000 No. kpts 6 Spacing 0.07
REM Total runtime: 5365.21 s
REM Overall efficiency: 95.8571 %
REM
REM
REM
REM compiler GCC version 4.9.2
REM options -cpp -iprefix /lustre/shared/ucl/apps/gcc/4.9.2/bin/../lib/gcc/x86_64-unknown-linux-gnu/4.9.2/ -mtune=corei7 -march=x86-64 -g -Og
REM COMMAND_LINE
REM seed 2080820185 532382399 1964905335 -1467592376 -247466587 -591402079 735237579 -1575497822 105720995 1302171082 -1664277213 -1479989417
REM
REM Se 3|2.1|7|7|9|40:41:32(qc=5)
REM Ag 3|2.2|7|7|9|40U:50:41:42(qc=5)
REM 
CELL 1.54180    5.43286    6.06437    7.74975   90.00000  108.40581   90.00000
LATT -1
SFAC Se Ag 
Se     1 -0.1323772848054 -0.2497350092440 -0.3140653733751 1.0
Se     1  0.1323772848054 -0.2497350092440  0.3140653733751 1.0
Se     1  0.1323772848054  0.2497350092440  0.3140653733751 1.0
Se     1 -0.1323772848054  0.2497350092440 -0.3140653733751 1.0
Ag     2 -0.2521556829888  0.2487231565944 -0.0000187497465 1.0
Ag     2  0.2521556829888  0.2487231565944  0.0000187497465 1.0
Ag     2  0.2521556829888 -0.2487231565944  0.0000187497465 1.0
Ag     2 -0.2521556829888 -0.2487231565944 -0.0000187497465 1.0
Ag     2 -0.3657919506210 -0.2515339487342  0.3289750799129 1.0
Ag     2  0.3657919506210 -0.2515339487342 -0.3289750799129 1.0
Ag     2  0.3657919506210  0.2515339487342 -0.3289750799129 1.0
Ag     2 -0.3657919506210  0.2515339487342  0.3289750799129 1.0
END
