TITL Ag2Se-P21c-200928-105036-ff3393 -0.0010 222.240964 -4.61189795E+004 0 0 12 (P21/c) n - 1
REM
REM Run started: Mon, 28 Sep 2020 11:58:17 +0100 in /lustre/scratch/uccabz1/launch_tmp/launcher_2020-09-28-09-50-35-169723
REM CASTEP 20.1 from code version af48c487+ pr-geom-scf-spinfix Tue Jun 2 15:39:59 2020 +0100
REM Functional PBE for solids (2008) Relativity Koelling-Harmon Dispersion off
REM Cut-off 340.0000 eV Grid scale 1.7500 Gmax 16.5316 1/A FBSC none
REM MP grid 4 3 2 Offset 0.000 0.000 0.000 No. kpts 8 Spacing 0.07
REM Total runtime: 4105.18 s
REM Overall efficiency: 93.2857 %
REM
REM
REM
REM compiler GCC version 4.9.2
REM options -cpp -iprefix /lustre/shared/ucl/apps/gcc/4.9.2/bin/../lib/gcc/x86_64-unknown-linux-gnu/4.9.2/ -mtune=corei7 -march=x86-64 -g -Og
REM COMMAND_LINE
REM seed -995055354 -941433126 -1345468991 -671525306 -677311054 160798045 -392743247 1099060015 896165781 2122508424 737749526 -1172549262
REM
REM Se 3|2.1|7|7|9|40:41:32(qc=5)
REM Ag 3|2.2|7|7|9|40U:50:41:42(qc=5)
REM 
CELL 1.54180    4.10754    6.48540    9.06325   90.00000  113.00139   90.00000
LATT -1
SFAC Se Ag 
Se     1  0.3266493526210  0.3066020995113 -0.3969759258673 1.0
Se     1 -0.3266493526210 -0.1933979004887 -0.1030240741327 1.0
Se     1 -0.3266493526210 -0.3066020995113  0.3969759258673 1.0
Se     1  0.3266493526210  0.1933979004887  0.1030240741327 1.0
Ag     2  0.3217361077933 -0.3721305739584  0.0759738873708 1.0
Ag     2 -0.3217361077933  0.1278694260416  0.4240261126292 1.0
Ag     2 -0.3217361077933  0.3721305739584 -0.0759738873708 1.0
Ag     2  0.3217361077933 -0.1278694260416 -0.4240261126292 1.0
Ag     2 -0.0148588606803 -0.4070915836982 -0.2730335051195 1.0
Ag     2  0.0148588606803  0.0929084163018 -0.2269664948805 1.0
Ag     2  0.0148588606803  0.4070915836982  0.2730335051195 1.0
Ag     2 -0.0148588606803 -0.0929084163018  0.2269664948805 1.0
END
