TITL Ag2Se-P21c-200928-095711-47ec24 0.0125 233.947319 -4.61188957E+004 0 0 12 (P21/c) n - 1
REM
REM Run started: Mon, 28 Sep 2020 10:54:34 +0100 in /lustre/scratch/uccabz1/launch_tmp/launcher_2020-09-28-08-57-09-369697
REM CASTEP 20.1 from code version af48c487+ pr-geom-scf-spinfix Tue Jun 2 15:39:59 2020 +0100
REM Functional PBE for solids (2008) Relativity Koelling-Harmon Dispersion off
REM Cut-off 340.0000 eV Grid scale 1.7500 Gmax 16.5316 1/A FBSC none
REM MP grid 4 2 2 Offset 0.000 0.000 0.000 No. kpts 4 Spacing 0.07
REM Total runtime: 3495.86 s
REM Overall efficiency: 92.875 %
REM
REM
REM
REM compiler GCC version 4.9.2
REM options -cpp -iprefix /lustre/shared/ucl/apps/gcc/4.9.2/bin/../lib/gcc/x86_64-unknown-linux-gnu/4.9.2/ -mtune=corei7 -march=x86-64 -g -Og
REM COMMAND_LINE
REM seed 1257055576 1877144518 2111364298 -1147246264 2016676684 -894577656 342823610 2047603923 -1175554571 549987573 -1906311168 1695907746
REM
REM Se 3|2.1|7|7|9|40:41:32(qc=5)
REM Ag 3|2.2|7|7|9|40U:50:41:42(qc=5)
REM 
CELL 1.54180    4.14130    7.66211    7.59223   90.00000  103.80829   90.00000
LATT -1
SFAC Se Ag 
Se     1  0.1553252045485  0.4064906474240  0.2236009379517 1.0
Se     1 -0.1553252045485 -0.0935093525760  0.2763990620483 1.0
Se     1 -0.1553252045485 -0.4064906474240 -0.2236009379517 1.0
Se     1  0.1553252045485  0.0935093525760 -0.2763990620483 1.0
Ag     2  0.2967944737513 -0.2144650120615 -0.4134686459355 1.0
Ag     2 -0.2967944737513  0.2855349879385 -0.0865313540645 1.0
Ag     2 -0.2967944737513  0.2144650120615  0.4134686459355 1.0
Ag     2  0.2967944737513 -0.2855349879385  0.0865313540645 1.0
Ag     2  0.2818817510956  0.4078875249931 -0.4046698124795 1.0
Ag     2 -0.2818817510956 -0.0921124750069 -0.0953301875205 1.0
Ag     2 -0.2818817510956 -0.4078875249931  0.4046698124795 1.0
Ag     2  0.2818817510956  0.0921124750069  0.0953301875205 1.0
END
