TITL Ag2Se-P2m-200928-132957-83c82a -0.0143 242.420530 -4.61166325E+004 0 0 12 (P2/m) n - 1
REM
REM Run started: Mon, 28 Sep 2020 15:10:49 +0100 in /lustre/scratch/uccabz1/launch_tmp/launcher_2020-09-28-12-29-54-479441
REM CASTEP 20.1 from code version af48c487+ pr-geom-scf-spinfix Tue Jun 2 15:39:59 2020 +0100
REM Functional PBE for solids (2008) Relativity Koelling-Harmon Dispersion off
REM Cut-off 340.0000 eV Grid scale 1.7500 Gmax 16.5316 1/A FBSC none
REM MP grid 3 3 2 Offset 0.000 0.000 0.000 No. kpts 6 Spacing 0.07
REM Total runtime: 5597.96 s
REM Overall efficiency: 91.125 %
REM
REM
REM
REM compiler GCC version 4.9.2
REM options -cpp -iprefix /lustre/shared/ucl/apps/gcc/4.9.2/bin/../lib/gcc/x86_64-unknown-linux-gnu/4.9.2/ -mtune=corei7 -march=x86-64 -g -Og
REM COMMAND_LINE
REM seed -868269454 1657554404 -2042180729 -131375880 -1707514479 -817088371 -248224016 1229924172 -1292002233 1477120915 1667969269 231609452
REM
REM Se 3|2.1|7|7|9|40:41:32(qc=5)
REM Ag 3|2.2|7|7|9|40U:50:41:42(qc=5)
REM 
CELL 1.54180    5.44205    6.04126    7.85250   90.00000  110.11379   90.00000
LATT -1
SFAC Se Ag 
Se     1  0.1486641849417 -0.2499327443945 -0.1846595419131 1.0
Se     1 -0.1486641849417 -0.2499327443945  0.1846595419131 1.0
Se     1 -0.1486641849417  0.2499327443945  0.1846595419131 1.0
Se     1  0.1486641849417  0.2499327443945 -0.1846595419131 1.0
Ag     2  0.3487054547982 -0.2501236308179  0.1749337930494 1.0
Ag     2 -0.3487054547982 -0.2501236308179 -0.1749337930494 1.0
Ag     2 -0.3487054547982  0.2501236308179 -0.1749337930494 1.0
Ag     2  0.3487054547982  0.2501236308179  0.1749337930494 1.0
Ag     2 -0.2511324171194 -0.2497666647721 -0.4994742928415 1.0
Ag     2  0.2511324171194 -0.2497666647721  0.4994742928415 1.0
Ag     2  0.2511324171194  0.2497666647721  0.4994742928415 1.0
Ag     2 -0.2511324171194  0.2497666647721 -0.4994742928415 1.0
END
