TITL Ag2Se-P2m-200928-133815-65f26a 0.0498 240.711784 -4.61166354E+004 0 0 12 (P2/m) n - 1
REM
REM Run started: Mon, 28 Sep 2020 16:04:35 +0100 in /lustre/scratch/uccabz1/launch_tmp/launcher_2020-09-28-12-38-12-839555
REM CASTEP 20.1 from code version af48c487+ pr-geom-scf-spinfix Tue Jun 2 15:39:59 2020 +0100
REM Functional PBE for solids (2008) Relativity Koelling-Harmon Dispersion off
REM Cut-off 340.0000 eV Grid scale 1.7500 Gmax 16.5316 1/A FBSC none
REM MP grid 3 3 2 Offset 0.000 0.000 0.000 No. kpts 6 Spacing 0.07
REM Total runtime: 7968.4 s
REM Overall efficiency: 95.7778 %
REM
REM
REM
REM compiler GCC version 4.9.2
REM options -cpp -iprefix /lustre/shared/ucl/apps/gcc/4.9.2/bin/../lib/gcc/x86_64-unknown-linux-gnu/4.9.2/ -mtune=corei7 -march=x86-64 -g -Og
REM COMMAND_LINE
REM seed 990274046 833326188 318812953 -526201672 -1980844810 -1807775927 1749659301 1604699091 -1852084023 -1729597175 1772862996 -830501750
REM
REM Se 3|2.1|7|7|9|40:41:32(qc=5)
REM Ag 3|2.2|7|7|9|40U:50:41:42(qc=5)
REM 
CELL 1.54180    5.41387    6.04445    7.69144   90.00000  106.98752   90.00000
LATT -1
SFAC Se Ag 
Se     1 -0.3829313247762 -0.2506784490611  0.3137947218577 1.0
Se     1  0.3829313247762 -0.2506784490611 -0.3137947218577 1.0
Se     1  0.3829313247762  0.2506784490611 -0.3137947218577 1.0
Se     1 -0.3829313247762  0.2506784490611  0.3137947218577 1.0
Ag     2  0.2461611221454 -0.2489847992480 -0.0021972813419 1.0
Ag     2 -0.2461611221454 -0.2489847992480  0.0021972813419 1.0
Ag     2 -0.2461611221454  0.2489847992480  0.0021972813419 1.0
Ag     2  0.2461611221454  0.2489847992480 -0.0021972813419 1.0
Ag     2 -0.1208767142199  0.2486553754168 -0.3330305086877 1.0
Ag     2  0.1208767142199  0.2486553754168  0.3330305086877 1.0
Ag     2  0.1208767142199 -0.2486553754168  0.3330305086877 1.0
Ag     2 -0.1208767142199 -0.2486553754168 -0.3330305086877 1.0
END
