TITL Ag2Se-P21c-200928-105024-faa0fc 0.0211 231.914080 -4.61189651E+004 0 0 12 (P21/c) n - 1
REM
REM Run started: Mon, 28 Sep 2020 11:48:36 +0100 in /lustre/scratch/uccabz1/launch_tmp/launcher_2020-09-28-09-50-22-819214
REM CASTEP 20.1 from code version af48c487+ pr-geom-scf-spinfix Tue Jun 2 15:39:59 2020 +0100
REM Functional PBE for solids (2008) Relativity Koelling-Harmon Dispersion off
REM Cut-off 340.0000 eV Grid scale 1.7500 Gmax 16.5316 1/A FBSC none
REM MP grid 4 3 2 Offset 0.000 0.000 0.000 No. kpts 8 Spacing 0.07
REM Total runtime: 3539.02 s
REM Overall efficiency: 93.3333 %
REM
REM
REM
REM compiler GCC version 4.9.2
REM options -cpp -iprefix /lustre/shared/ucl/apps/gcc/4.9.2/bin/../lib/gcc/x86_64-unknown-linux-gnu/4.9.2/ -mtune=corei7 -march=x86-64 -g -Og
REM COMMAND_LINE
REM seed -732596910 -395920757 1711537173 1451718824 -1306368913 -1196095787 -1361907457 1609351937 -1285901737 -1953711580 -789650052 1695597990
REM
REM Se 3|2.1|7|7|9|40:41:32(qc=5)
REM Ag 3|2.2|7|7|9|40U:50:41:42(qc=5)
REM 
CELL 1.54180    4.19036    6.84320    8.35957   90.00000  104.65673   90.00000
LATT -1
SFAC Se Ag 
Se     1 -0.3276529952902  0.2563090990333 -0.1479857779677 1.0
Se     1  0.3276529952902 -0.2436909009667 -0.3520142220323 1.0
Se     1  0.3276529952902 -0.2563090990333  0.1479857779677 1.0
Se     1 -0.3276529952902  0.2436909009667  0.3520142220323 1.0
Ag     2  0.2676354062664  0.3518536511137  0.0557486933186 1.0
Ag     2 -0.2676354062664 -0.1481463488863  0.4442513066814 1.0
Ag     2 -0.2676354062664 -0.3518536511137 -0.0557486933186 1.0
Ag     2  0.2676354062664  0.1481463488863 -0.4442513066814 1.0
Ag     2 -0.1414828142497  0.4834059425448 -0.3645148772088 1.0
Ag     2  0.1414828142497 -0.0165940574552 -0.1354851227912 1.0
Ag     2  0.1414828142497 -0.4834059425448  0.3645148772088 1.0
Ag     2 -0.1414828142497  0.0165940574552  0.1354851227912 1.0
END
