TITL Ag2Se-P2m-200928-131258-a500db 0.0367 231.922970 -4.61165501E+004 0 0 12 (Cmmm) n - 1
REM
REM Run started: Mon, 28 Sep 2020 15:12:45 +0100 in /lustre/scratch/uccabz1/launch_tmp/launcher_2020-09-28-12-12-56-036881
REM CASTEP 20.1 from code version af48c487+ pr-geom-scf-spinfix Tue Jun 2 15:39:59 2020 +0100
REM Functional PBE for solids (2008) Relativity Koelling-Harmon Dispersion off
REM Cut-off 340.0000 eV Grid scale 1.7500 Gmax 16.5316 1/A FBSC none
REM MP grid 3 3 2 Offset 0.000 0.000 0.000 No. kpts 6 Spacing 0.07
REM Total runtime: 7068.7 s
REM Overall efficiency: 94.3333 %
REM
REM
REM
REM compiler GCC version 4.9.2
REM options -cpp -iprefix /lustre/shared/ucl/apps/gcc/4.9.2/bin/../lib/gcc/x86_64-unknown-linux-gnu/4.9.2/ -mtune=corei7 -march=x86-64 -g -Og
REM COMMAND_LINE
REM seed -2073707935 282315614 -537395722 -1450902846 691845299 -296583243 -1463774932 -1088093740 1631382664 865271783 -953947363 -1318266795
REM
REM Se 3|2.1|7|7|9|40:41:32(qc=5)
REM Ag 3|2.2|7|7|9|40U:50:41:42(qc=5)
REM 
CELL 1.54180    4.88721    5.70673    8.31564   90.00000   89.94149   90.00000
LATT -1
SFAC Se Ag 
Se     1 -0.2531558845018 -0.2502895228555  0.2495671755949 1.0
Se     1  0.2531558845018 -0.2502895228555 -0.2495671755949 1.0
Se     1  0.2531558845018  0.2502895228555 -0.2495671755949 1.0
Se     1 -0.2531558845018  0.2502895228555  0.2495671755949 1.0
Ag     2  0.2484320800699 -0.2501058862125  0.0833270047303 1.0
Ag     2 -0.2484320800699 -0.2501058862125 -0.0833270047303 1.0
Ag     2 -0.2484320800699  0.2501058862125 -0.0833270047303 1.0
Ag     2  0.2484320800699  0.2501058862125  0.0833270047303 1.0
Ag     2 -0.2487227574827  0.2499394403243 -0.4173736091676 1.0
Ag     2  0.2487227574827  0.2499394403243  0.4173736091676 1.0
Ag     2  0.2487227574827 -0.2499394403243  0.4173736091676 1.0
Ag     2 -0.2487227574827 -0.2499394403243 -0.4173736091676 1.0
END
