TITL Ag2Se-P2m-200928-133545-e37452 -0.0203 242.727154 -4.61166525E+004 0 0 12 (P2/m) n - 1
REM
REM Run started: Mon, 28 Sep 2020 14:42:11 +0100 in /lustre/scratch/uccabz1/launch_tmp/launcher_2020-09-28-12-35-43-957422
REM CASTEP 20.1 from code version af48c487+ pr-geom-scf-spinfix Tue Jun 2 15:39:59 2020 +0100
REM Functional PBE for solids (2008) Relativity Koelling-Harmon Dispersion off
REM Cut-off 340.0000 eV Grid scale 1.7500 Gmax 16.5316 1/A FBSC none
REM MP grid 3 3 2 Offset 0.000 0.000 0.000 No. kpts 6 Spacing 0.07
REM Total runtime: 4040.91 s
REM Overall efficiency: 93.8333 %
REM
REM
REM
REM compiler GCC version 4.9.2
REM options -cpp -iprefix /lustre/shared/ucl/apps/gcc/4.9.2/bin/../lib/gcc/x86_64-unknown-linux-gnu/4.9.2/ -mtune=corei7 -march=x86-64 -g -Og
REM COMMAND_LINE
REM seed -1898436718 498321862 846793551 -1180399562 -1750482700 -194625982 -11628333 -48670567 -1723588202 1494099650 2092336171 -1987734727
REM
REM Se 3|2.1|7|7|9|40:41:32(qc=5)
REM Ag 3|2.2|7|7|9|40U:50:41:42(qc=5)
REM 
CELL 1.54180    5.43033    6.08438    7.73189   90.00000  108.16800   90.00000
LATT -1
SFAC Se Ag 
Se     1 -0.3698575030154 -0.2511711923107 -0.1856099050783 1.0
Se     1  0.3698575030154 -0.2511711923107  0.1856099050783 1.0
Se     1  0.3698575030154  0.2511711923107  0.1856099050783 1.0
Se     1 -0.3698575030154  0.2511711923107 -0.1856099050783 1.0
Ag     2  0.2476024314459  0.2483861689871 -0.5003659805908 1.0
Ag     2 -0.2476024314459  0.2483861689871  0.5003659805908 1.0
Ag     2 -0.2476024314459 -0.2483861689871  0.5003659805908 1.0
Ag     2  0.2476024314459 -0.2483861689871 -0.5003659805908 1.0
Ag     2  0.1321237603659 -0.2508522882755 -0.1704532920667 1.0
Ag     2 -0.1321237603659 -0.2508522882755  0.1704532920667 1.0
Ag     2 -0.1321237603659  0.2508522882755  0.1704532920667 1.0
Ag     2  0.1321237603659  0.2508522882755 -0.1704532920667 1.0
END
