TITL Ag2Se-P21c-200928-094515-54266e -0.0516 230.773334 -4.61189660E+004 0 0 12 (P21/c) n - 1
REM
REM Run started: Mon, 28 Sep 2020 12:33:46 +0100 in /scratch/scratch/uccabz1/launch_tmp/launcher_2020-09-28-08-45-13-985398
REM CASTEP 19.11| from code version Version unavailable
REM Functional PBE for solids (2008) Relativity Koelling-Harmon Dispersion off
REM Cut-off 340.0000 eV Grid scale 1.7500 Gmax 16.5316 1/A FBSC none
REM MP grid 4 2 3 Offset 0.000 0.000 0.000 No. kpts 6 Spacing 0.07
REM Total runtime: 10197 s
REM Overall efficiency: 96 %
REM
REM
REM
REM compiler GCC version 4.9.2
REM options -cpp -iprefix /scratch/UCL/applications/gcc/4.9.2/bin/../lib/gcc/x86_64-unknown-linux-gnu/4.9.2/ -mtune=corei7 -march=x86-64 -g -O2
REM COMMAND_LINE
REM seed -1306469265 2051817834 1218979108 -55853154 801872480 -37308483 -1977378164 798139228 392809222 -758783671 134318866 950194766
REM
REM Se 3|2.1|7|7|9|40:41:32(qc=5)
REM Ag 3|2.2|7|7|9|40U:50:41:42(qc=5)
REM 
CELL 1.54180    4.85679    7.18547    7.77090   90.00000   58.31634   90.00000
LATT -1
SFAC Se Ag 
Se     1  0.0809101271061 -0.4585829986822 -0.2843737100313 1.0
Se     1  0.4190898728939  0.0414170013178  0.2843737100313 1.0
Se     1 -0.0809101271061  0.4585829986822  0.2843737100313 1.0
Se     1 -0.4190898728939 -0.0414170013178 -0.2843737100313 1.0
Ag     2 -0.1470326575875 -0.1484701407115 -0.0465286220612 1.0
Ag     2 -0.3529673424125  0.3515298592885  0.0465286220612 1.0
Ag     2  0.1470326575875  0.1484701407115  0.0465286220612 1.0
Ag     2  0.3529673424125 -0.3515298592885 -0.0465286220612 1.0
Ag     2 -0.1043174755396 -0.1519210069143  0.3237425328250 1.0
Ag     2 -0.3956825244604  0.3480789930857 -0.3237425328250 1.0
Ag     2  0.1043174755396  0.1519210069143 -0.3237425328250 1.0
Ag     2  0.3956825244604 -0.3480789930857  0.3237425328250 1.0
END
