TITL Ag2Se-P2m-200928-133001-500841 0.0244 242.007191 -4.61166524E+004 0 0 12 (P2/m) n - 1
REM
REM Run started: Mon, 28 Sep 2020 14:22:31 +0100 in /lustre/scratch/uccabz1/launch_tmp/launcher_2020-09-28-12-29-58-994636
REM CASTEP 20.1 from code version af48c487+ pr-geom-scf-spinfix Tue Jun 2 15:39:59 2020 +0100
REM Functional PBE for solids (2008) Relativity Koelling-Harmon Dispersion off
REM Cut-off 340.0000 eV Grid scale 1.7500 Gmax 16.5316 1/A FBSC none
REM MP grid 3 3 2 Offset 0.000 0.000 0.000 No. kpts 6 Spacing 0.07
REM Total runtime: 3535.32 s
REM Overall efficiency: 96.1667 %
REM
REM
REM
REM compiler GCC version 4.9.2
REM options -cpp -iprefix /lustre/shared/ucl/apps/gcc/4.9.2/bin/../lib/gcc/x86_64-unknown-linux-gnu/4.9.2/ -mtune=corei7 -march=x86-64 -g -Og
REM COMMAND_LINE
REM seed -742884767 418588662 -1681565439 1120364286 1260405534 -1329978514 1625211854 706143610 595478921 468460339 1047929223 1061504285
REM
REM Se 3|2.1|7|7|9|40:41:32(qc=5)
REM Ag 3|2.2|7|7|9|40U:50:41:42(qc=5)
REM 
CELL 1.54180    5.43616    6.05542    7.73716   90.00000  108.16009   90.00000
LATT -1
SFAC Se Ag 
Se     1  0.1299609448228  0.2478889930236 -0.1858749459108 1.0
Se     1 -0.1299609448228  0.2478889930236  0.1858749459108 1.0
Se     1 -0.1299609448228 -0.2478889930236  0.1858749459108 1.0
Se     1  0.1299609448228 -0.2478889930236 -0.1858749459108 1.0
Ag     2 -0.3667110567183  0.2523819083005 -0.1704437557149 1.0
Ag     2  0.3667110567183  0.2523819083005  0.1704437557149 1.0
Ag     2  0.3667110567183 -0.2523819083005  0.1704437557149 1.0
Ag     2 -0.3667110567183 -0.2523819083005 -0.1704437557149 1.0
Ag     2 -0.2529870128053 -0.2535187089004 -0.5015622725562 1.0
Ag     2  0.2529870128053 -0.2535187089004  0.5015622725562 1.0
Ag     2  0.2529870128053  0.2535187089004  0.5015622725562 1.0
Ag     2 -0.2529870128053  0.2535187089004 -0.5015622725562 1.0
END
