TITL Ag2Se-P2m-200928-124840-e538e9 -0.0273 241.246723 -4.61166406E+004 0 0 12 (P2/m) n - 1
REM
REM Run started: Mon, 28 Sep 2020 15:08:47 +0100 in /scratch/scratch/uccabz1/launch_tmp/launcher_2020-09-28-11-48-38-754272
REM CASTEP 19.11| from code version Version unavailable
REM Functional PBE for solids (2008) Relativity Koelling-Harmon Dispersion off
REM Cut-off 340.0000 eV Grid scale 1.7500 Gmax 16.5316 1/A FBSC none
REM MP grid 3 3 2 Offset 0.000 0.000 0.000 No. kpts 6 Spacing 0.07
REM Total runtime: 8588.1 s
REM Overall efficiency: 96.8889 %
REM
REM
REM
REM compiler GCC version 4.9.2
REM options -cpp -iprefix /scratch/UCL/applications/gcc/4.9.2/bin/../lib/gcc/x86_64-unknown-linux-gnu/4.9.2/ -mtune=corei7 -march=x86-64 -g -O2
REM COMMAND_LINE
REM seed 837517368 1911883060 -244373800 207009090 251610366 -1666284037 1235151829 -1116021596 -1779985262 -1123757253 1600766545 -1659477555
REM
REM Se 3|2.1|7|7|9|40:41:32(qc=5)
REM Ag 3|2.2|7|7|9|40U:50:41:42(qc=5)
REM 
CELL 1.54180    5.41898    6.05060    7.70556   90.00000  107.28013   90.00000
LATT -1
SFAC Se Ag 
Se     1 -0.3792222091565 -0.2487676420810  0.3138519159808 1.0
Se     1  0.3792222091565 -0.2487676420810 -0.3138519159808 1.0
Se     1  0.3792222091565  0.2487676420810 -0.3138519159808 1.0
Se     1 -0.3792222091565  0.2487676420810  0.3138519159808 1.0
Ag     2  0.1245181537074 -0.2492663667877  0.3324350447723 1.0
Ag     2 -0.1245181537074 -0.2492663667877 -0.3324350447723 1.0
Ag     2 -0.1245181537074  0.2492663667877 -0.3324350447723 1.0
Ag     2  0.1245181537074  0.2492663667877  0.3324350447723 1.0
Ag     2 -0.2463934640887  0.2505092774126  0.0022635918886 1.0
Ag     2  0.2463934640887  0.2505092774126 -0.0022635918886 1.0
Ag     2  0.2463934640887 -0.2505092774126 -0.0022635918886 1.0
Ag     2 -0.2463934640887 -0.2505092774126  0.0022635918886 1.0
END
