TITL Ag2Se-P21c-200928-103753-709e8f 0.0467 232.914583 -4.61188916E+004 0 0 12 (P21/c) n - 1
REM
REM Run started: Mon, 28 Sep 2020 11:55:33 +0100 in /lustre/scratch/uccabz1/launch_tmp/launcher_2020-09-28-09-37-51-572117
REM CASTEP 20.1 from code version af48c487+ pr-geom-scf-spinfix Tue Jun 2 15:39:59 2020 +0100
REM Functional PBE for solids (2008) Relativity Koelling-Harmon Dispersion off
REM Cut-off 340.0000 eV Grid scale 1.7500 Gmax 16.5316 1/A FBSC none
REM MP grid 4 2 2 Offset 0.000 0.000 0.000 No. kpts 4 Spacing 0.07
REM Total runtime: 4692.72 s
REM Overall efficiency: 93.1111 %
REM
REM
REM
REM compiler GCC version 4.9.2
REM options -cpp -iprefix /lustre/shared/ucl/apps/gcc/4.9.2/bin/../lib/gcc/x86_64-unknown-linux-gnu/4.9.2/ -mtune=corei7 -march=x86-64 -g -Og
REM COMMAND_LINE
REM seed 2023573228 1307266273 472907857 865890442 -568017346 -499963146 -1781216559 221077619 -288260343 -629843492 -1825412889 755487220
REM
REM Se 3|2.1|7|7|9|40:41:32(qc=5)
REM Ag 3|2.2|7|7|9|40U:50:41:42(qc=5)
REM 
CELL 1.54180    4.14522    7.65436    7.56148   90.00000  103.87806   90.00000
LATT -1
SFAC Se Ag 
Se     1 -0.1579593533616 -0.0943161491697 -0.2259457149513 1.0
Se     1  0.1579593533616  0.4056838508303 -0.2740542850487 1.0
Se     1  0.1579593533616  0.0943161491697  0.2259457149513 1.0
Se     1 -0.1579593533616 -0.4056838508303  0.2740542850487 1.0
Ag     2  0.2789246904405  0.0889585443484 -0.3985478454879 1.0
Ag     2 -0.2789246904405 -0.4110414556516 -0.1014521545121 1.0
Ag     2 -0.2789246904405 -0.0889585443484  0.3985478454879 1.0
Ag     2  0.2789246904405  0.4110414556516  0.1014521545121 1.0
Ag     2 -0.3083788731317  0.2906529839806  0.4248921203665 1.0
Ag     2  0.3083788731317 -0.2093470160194  0.0751078796335 1.0
Ag     2  0.3083788731317 -0.2906529839806 -0.4248921203665 1.0
Ag     2 -0.3083788731317  0.2093470160194 -0.0751078796335 1.0
END
