TITL Ag2Se-P2m-200928-132121-beb995 0.0223 241.025049 -4.61166354E+004 0 0 12 (P2/m) n - 1
REM
REM Run started: Mon, 28 Sep 2020 15:08:55 +0100 in /lustre/scratch/uccabz1/launch_tmp/launcher_2020-09-28-12-21-19-336010
REM CASTEP 20.1 from code version af48c487+ pr-geom-scf-spinfix Tue Jun 2 15:39:59 2020 +0100
REM Functional PBE for solids (2008) Relativity Koelling-Harmon Dispersion off
REM Cut-off 340.0000 eV Grid scale 1.7500 Gmax 16.5316 1/A FBSC none
REM MP grid 3 3 2 Offset 0.000 0.000 0.000 No. kpts 6 Spacing 0.07
REM Total runtime: 5334.76 s
REM Overall efficiency: 94.4286 %
REM
REM
REM
REM compiler GCC version 4.9.2
REM options -cpp -iprefix /lustre/shared/ucl/apps/gcc/4.9.2/bin/../lib/gcc/x86_64-unknown-linux-gnu/4.9.2/ -mtune=corei7 -march=x86-64 -g -Og
REM COMMAND_LINE
REM seed 1483518397 -982536864 -636715064 -603851690 1831906761 -2139739428 -527766172 1870472230 -1188665408 1166899759 126207495 1189732200
REM
REM Se 3|2.1|7|7|9|40:41:32(qc=5)
REM Ag 3|2.2|7|7|9|40U:50:41:42(qc=5)
REM 
CELL 1.54180    5.40959    6.05956    7.68566   90.00000  106.92265   90.00000
LATT -1
SFAC Se Ag 
Se     1 -0.1157132839971  0.2494975715845  0.1867516299833 1.0
Se     1  0.1157132839971  0.2494975715845 -0.1867516299833 1.0
Se     1  0.1157132839971 -0.2494975715845 -0.1867516299833 1.0
Se     1 -0.1157132839971 -0.2494975715845  0.1867516299833 1.0
Ag     2  0.3792030800722  0.2497160864412  0.1657018763409 1.0
Ag     2 -0.3792030800722  0.2497160864412 -0.1657018763409 1.0
Ag     2 -0.3792030800722 -0.2497160864412 -0.1657018763409 1.0
Ag     2  0.3792030800722 -0.2497160864412  0.1657018763409 1.0
Ag     2 -0.2538491908704 -0.2508042268006  0.4968421988178 1.0
Ag     2  0.2538491908704 -0.2508042268006 -0.4968421988178 1.0
Ag     2  0.2538491908704  0.2508042268006 -0.4968421988178 1.0
Ag     2 -0.2538491908704  0.2508042268006  0.4968421988178 1.0
END
