TITL Ag2Se-P21c-200928-115722-2276bf -0.0277 230.751808 -4.61189667E+004 0 0 12 (P21/c) n - 1
REM
REM Run started: Mon, 28 Sep 2020 14:35:27 +0100 in /lustre/scratch/uccabz1/launch_tmp/launcher_2020-09-28-10-57-20-946076
REM CASTEP 20.1 from code version af48c487+ pr-geom-scf-spinfix Tue Jun 2 15:39:59 2020 +0100
REM Functional PBE for solids (2008) Relativity Koelling-Harmon Dispersion off
REM Cut-off 340.0000 eV Grid scale 1.7500 Gmax 16.5316 1/A FBSC none
REM MP grid 4 2 3 Offset 0.000 0.000 0.000 No. kpts 6 Spacing 0.07
REM Total runtime: 9530.39 s
REM Overall efficiency: 92.8 %
REM
REM
REM
REM compiler GCC version 4.9.2
REM options -cpp -iprefix /lustre/shared/ucl/apps/gcc/4.9.2/bin/../lib/gcc/x86_64-unknown-linux-gnu/4.9.2/ -mtune=corei7 -march=x86-64 -g -Og
REM COMMAND_LINE
REM seed -1576982824 1229127229 1140349625 -1984240358 1342402207 1458602568 -619976957 475950939 -2115873633 -1816198807 1442608876 496346318
REM
REM Se 3|2.1|7|7|9|40:41:32(qc=5)
REM Ag 3|2.2|7|7|9|40U:50:41:42(qc=5)
REM 
CELL 1.54180    4.85820    7.20573    7.76849   90.00000  121.95046   90.00000
LATT -1
SFAC Se Ag 
Se     1 -0.4191924023341  0.4600015522433 -0.2157207898698 1.0
Se     1 -0.0808075976659 -0.0399984477567  0.2157207898698 1.0
Se     1  0.4191924023341 -0.4600015522433  0.2157207898698 1.0
Se     1  0.0808075976659  0.0399984477567 -0.2157207898698 1.0
Ag     2  0.1044903660297 -0.3477023241935 -0.1752900163194 1.0
Ag     2  0.3955096339703  0.1522976758065  0.1752900163194 1.0
Ag     2 -0.1044903660297  0.3477023241935  0.1752900163194 1.0
Ag     2 -0.3955096339703 -0.1522976758065 -0.1752900163194 1.0
Ag     2  0.1422979811904 -0.3505823948655 -0.5473963004228 1.0
Ag     2  0.3577020188097  0.1494176051345  0.5473963004228 1.0
Ag     2 -0.1422979811904  0.3505823948655  0.5473963004228 1.0
Ag     2 -0.3577020188097 -0.1494176051345 -0.5473963004228 1.0
END
