TITL Ag2Se-P2m-200928-135151-01f8c0 -0.0046 232.085466 -4.61165472E+004 0 0 12 (Pmma) n - 1
REM
REM Run started: Mon, 28 Sep 2020 15:10:03 +0100 in /lustre/scratch/uccabz1/launch_tmp/launcher_2020-09-28-12-51-49-645159
REM CASTEP 20.1 from code version af48c487+ pr-geom-scf-spinfix Tue Jun 2 15:39:59 2020 +0100
REM Functional PBE for solids (2008) Relativity Koelling-Harmon Dispersion off
REM Cut-off 340.0000 eV Grid scale 1.7500 Gmax 16.5316 1/A FBSC none
REM MP grid 3 3 2 Offset 0.000 0.000 0.000 No. kpts 6 Spacing 0.07
REM Total runtime: 4159.69 s
REM Overall efficiency: 93 %
REM
REM
REM
REM compiler GCC version 4.9.2
REM options -cpp -iprefix /lustre/shared/ucl/apps/gcc/4.9.2/bin/../lib/gcc/x86_64-unknown-linux-gnu/4.9.2/ -mtune=corei7 -march=x86-64 -g -Og
REM COMMAND_LINE
REM seed 1182018953 818354108 -5256498 651204234 1841337195 -514834665 1501523855 -1493342269 1906670031 284875328 -1267948157 1814466617
REM
REM Se 3|2.1|7|7|9|40:41:32(qc=5)
REM Ag 3|2.2|7|7|9|40U:50:41:42(qc=5)
REM 
CELL 1.54180    4.89116    5.70704    8.31430   90.00000   89.89504   90.00000
LATT -1
SFAC Se Ag 
Se     1  0.2569217065039 -0.2502517252430  0.2505996727216 1.0
Se     1 -0.2569217065039 -0.2502517252430 -0.2505996727216 1.0
Se     1 -0.2569217065039  0.2502517252430 -0.2505996727216 1.0
Se     1  0.2569217065039  0.2502517252430  0.2505996727216 1.0
Ag     2  0.2475521531843  0.2500248826281 -0.0822245675502 1.0
Ag     2 -0.2475521531843  0.2500248826281  0.0822245675502 1.0
Ag     2 -0.2475521531843 -0.2500248826281  0.0822245675502 1.0
Ag     2  0.2475521531843 -0.2500248826281 -0.0822245675502 1.0
Ag     2 -0.2466791711810 -0.2499468392551  0.4158307905328 1.0
Ag     2  0.2466791711810 -0.2499468392551 -0.4158307905328 1.0
Ag     2  0.2466791711810  0.2499468392551 -0.4158307905328 1.0
Ag     2 -0.2466791711810  0.2499468392551  0.4158307905328 1.0
END
