TITL Ag2Se-P2m-200928-124744-473e7c 0.0605 241.872568 -4.61166518E+004 0 0 12 (P2/m) n - 1
REM
REM Run started: Mon, 28 Sep 2020 13:51:34 +0100 in /lustre/scratch/uccabz1/launch_tmp/launcher_2020-09-28-11-47-42-734596
REM CASTEP 20.1 from code version af48c487+ pr-geom-scf-spinfix Tue Jun 2 15:39:59 2020 +0100
REM Functional PBE for solids (2008) Relativity Koelling-Harmon Dispersion off
REM Cut-off 340.0000 eV Grid scale 1.7500 Gmax 16.5316 1/A FBSC none
REM MP grid 3 3 2 Offset 0.000 0.000 0.000 No. kpts 6 Spacing 0.07
REM Total runtime: 3878.82 s
REM Overall efficiency: 93.5 %
REM
REM
REM
REM compiler GCC version 4.9.2
REM options -cpp -iprefix /lustre/shared/ucl/apps/gcc/4.9.2/bin/../lib/gcc/x86_64-unknown-linux-gnu/4.9.2/ -mtune=corei7 -march=x86-64 -g -Og
REM COMMAND_LINE
REM seed -1089472419 1701706660 -1408300810 826033446 1547765528 494471234 -2139806714 -931531695 899839402 811921633 2000823360 -1788812912
REM
REM Se 3|2.1|7|7|9|40:41:32(qc=5)
REM Ag 3|2.2|7|7|9|40U:50:41:42(qc=5)
REM 
CELL 1.54180    5.43078    6.05081    7.75326   90.00000  108.31375   90.00000
LATT -1
SFAC Se Ag 
Se     1 -0.3681272866981  0.2510879224247  0.3138750559151 1.0
Se     1  0.3681272866981  0.2510879224247 -0.3138750559151 1.0
Se     1  0.3681272866981 -0.2510879224247 -0.3138750559151 1.0
Se     1 -0.3681272866981 -0.2510879224247  0.3138750559151 1.0
Ag     2 -0.1333846089718 -0.2476069369764 -0.3294863962847 1.0
Ag     2  0.1333846089718 -0.2476069369764  0.3294863962847 1.0
Ag     2  0.1333846089718  0.2476069369764  0.3294863962847 1.0
Ag     2 -0.1333846089718  0.2476069369764 -0.3294863962847 1.0
Ag     2 -0.2473036073212 -0.2515037060985 -0.0002367386073 1.0
Ag     2  0.2473036073212 -0.2515037060985  0.0002367386073 1.0
Ag     2  0.2473036073212  0.2515037060985  0.0002367386073 1.0
Ag     2 -0.2473036073212  0.2515037060985 -0.0002367386073 1.0
END
