TITL Ag2Se-P2m-200928-130340-b0fa66 -0.0266 232.136001 -4.61165505E+004 0 0 12 (Cmmm) n - 1
REM
REM Run started: Mon, 28 Sep 2020 15:09:42 +0100 in /lustre/scratch/uccabz1/launch_tmp/launcher_2020-09-28-12-03-38-436060
REM CASTEP 20.1 from code version af48c487+ pr-geom-scf-spinfix Tue Jun 2 15:39:59 2020 +0100
REM Functional PBE for solids (2008) Relativity Koelling-Harmon Dispersion off
REM Cut-off 340.0000 eV Grid scale 1.7500 Gmax 16.5316 1/A FBSC none
REM MP grid 3 3 2 Offset 0.000 0.000 0.000 No. kpts 6 Spacing 0.07
REM Total runtime: 6797.86 s
REM Overall efficiency: 92.5556 %
REM
REM
REM
REM compiler GCC version 4.9.2
REM options -cpp -iprefix /lustre/shared/ucl/apps/gcc/4.9.2/bin/../lib/gcc/x86_64-unknown-linux-gnu/4.9.2/ -mtune=corei7 -march=x86-64 -g -Og
REM COMMAND_LINE
REM seed -96935699 1786105892 -1969908906 -125737003 -253819057 -333606278 1794176821 496262100 1057561957 -1266191296 -1774494539 -1781693947
REM
REM Se 3|2.1|7|7|9|40:41:32(qc=5)
REM Ag 3|2.2|7|7|9|40U:50:41:42(qc=5)
REM 
CELL 1.54180    4.89014    5.70998    8.31356   90.00000   89.98123   90.00000
LATT -1
SFAC Se Ag 
Se     1 -0.2525341252070 -0.2494342429016  0.2498264764362 1.0
Se     1  0.2525341252070 -0.2494342429016 -0.2498264764362 1.0
Se     1  0.2525341252070  0.2494342429016 -0.2498264764362 1.0
Se     1 -0.2525341252070  0.2494342429016  0.2498264764362 1.0
Ag     2  0.2490344943123  0.2500826645212  0.4168818887536 1.0
Ag     2 -0.2490344943123  0.2500826645212 -0.4168818887536 1.0
Ag     2 -0.2490344943123 -0.2500826645212 -0.4168818887536 1.0
Ag     2  0.2490344943123 -0.2500826645212  0.4168818887536 1.0
Ag     2 -0.2492963458543 -0.2500388536040 -0.0828633030532 1.0
Ag     2  0.2492963458543 -0.2500388536040  0.0828633030532 1.0
Ag     2  0.2492963458543  0.2500388536040  0.0828633030532 1.0
Ag     2 -0.2492963458543  0.2500388536040 -0.0828633030532 1.0
END
