TITL Ag2Se-P21c-200928-114157-03f292 0.0111 230.356270 -4.61190468E+004 0 0 12 (P21/c) n - 1
REM
REM Run started: Mon, 28 Sep 2020 13:02:05 +0100 in /lustre/scratch/uccabz1/launch_tmp/launcher_2020-09-28-10-41-55-669116
REM CASTEP 20.1 from code version af48c487+ pr-geom-scf-spinfix Tue Jun 2 15:39:59 2020 +0100
REM Functional PBE for solids (2008) Relativity Koelling-Harmon Dispersion off
REM Cut-off 340.0000 eV Grid scale 1.7500 Gmax 16.5316 1/A FBSC none
REM MP grid 3 2 3 Offset 0.000 0.000 0.000 No. kpts 5 Spacing 0.07
REM Total runtime: 5002.05 s
REM Overall efficiency: 84.75 %
REM
REM
REM
REM compiler GCC version 4.9.2
REM options -cpp -iprefix /lustre/shared/ucl/apps/gcc/4.9.2/bin/../lib/gcc/x86_64-unknown-linux-gnu/4.9.2/ -mtune=corei7 -march=x86-64 -g -Og
REM COMMAND_LINE
REM seed 2085784791 1233462867 -1320268401 1079630459 -1620743330 1144381978 907630459 -42841580 -1049474108 -1932149564 -2135507473 1332872597
REM
REM Se 3|2.1|7|7|9|40:41:32(qc=5)
REM Ag 3|2.2|7|7|9|40U:50:41:42(qc=5)
REM 
CELL 1.54180    4.91743    7.11450    6.64207   90.00000   97.55490   90.00000
LATT -1
SFAC Se Ag 
Se     1  0.1930373274911  0.0423757293836 -0.2179593704290 1.0
Se     1  0.3069626725089 -0.4576242706164  0.2179593704290 1.0
Se     1 -0.1930373274911 -0.0423757293836  0.2179593704290 1.0
Se     1 -0.3069626725089  0.4576242706164 -0.2179593704290 1.0
Ag     2  0.2118615798290 -0.3489334909460 -0.1742173503579 1.0
Ag     2  0.2881384201710  0.1510665090540  0.1742173503579 1.0
Ag     2 -0.2118615798290  0.3489334909460  0.1742173503579 1.0
Ag     2 -0.2881384201710 -0.1510665090540 -0.1742173503579 1.0
Ag     2 -0.3070509498035  0.1499078921489 -0.4560751217019 1.0
Ag     2 -0.1929490501965 -0.3500921078511  0.4560751217019 1.0
Ag     2  0.3070509498035 -0.1499078921489  0.4560751217019 1.0
Ag     2  0.1929490501965  0.3500921078511 -0.4560751217019 1.0
END
