TITL Ag2Se-P2m-200928-134436-bf1044 0.0138 242.032160 -4.61166488E+004 0 0 12 (P2/m) n - 1
REM
REM Run started: Mon, 28 Sep 2020 15:42:25 +0100 in /lustre/scratch/uccabz1/launch_tmp/launcher_2020-09-28-12-44-34-610382
REM CASTEP 20.1 from code version af48c487+ pr-geom-scf-spinfix Tue Jun 2 15:39:59 2020 +0100
REM Functional PBE for solids (2008) Relativity Koelling-Harmon Dispersion off
REM Cut-off 340.0000 eV Grid scale 1.7500 Gmax 16.5316 1/A FBSC none
REM MP grid 3 3 2 Offset 0.000 0.000 0.000 No. kpts 6 Spacing 0.07
REM Total runtime: 6097.19 s
REM Overall efficiency: 92 %
REM
REM
REM
REM compiler GCC version 4.9.2
REM options -cpp -iprefix /lustre/shared/ucl/apps/gcc/4.9.2/bin/../lib/gcc/x86_64-unknown-linux-gnu/4.9.2/ -mtune=corei7 -march=x86-64 -g -Og
REM COMMAND_LINE
REM seed -1255819817 -2042851237 -963708079 28039133 1151457241 -412594231 -1251995185 1170179917 1182969227 146022345 -1389310402 -1555008707
REM
REM Se 3|2.1|7|7|9|40:41:32(qc=5)
REM Ag 3|2.2|7|7|9|40U:50:41:42(qc=5)
REM 
CELL 1.54180    5.44418    6.04055    7.78386   90.00000  109.00039   90.00000
LATT -1
SFAC Se Ag 
Se     1 -0.1373864378878  0.2499281414201  0.1850248611901 1.0
Se     1  0.1373864378878  0.2499281414201 -0.1850248611901 1.0
Se     1  0.1373864378878 -0.2499281414201 -0.1850248611901 1.0
Se     1 -0.1373864378878 -0.2499281414201  0.1850248611901 1.0
Ag     2  0.3593519315618 -0.2499832740440  0.1730379613426 1.0
Ag     2 -0.3593519315618 -0.2499832740440 -0.1730379613426 1.0
Ag     2 -0.3593519315618  0.2499832740440 -0.1730379613426 1.0
Ag     2  0.3593519315618  0.2499832740440  0.1730379613426 1.0
Ag     2  0.2527285902443  0.2502136401351  0.5008279929064 1.0
Ag     2 -0.2527285902443  0.2502136401351 -0.5008279929064 1.0
Ag     2 -0.2527285902443 -0.2502136401351 -0.5008279929064 1.0
Ag     2  0.2527285902443 -0.2502136401351  0.5008279929064 1.0
END
