TITL Ag2Se-P2m-200928-092950-fd9bed -0.0020 242.280942 -4.61166534E+004 0 0 12 (P2/m) n - 1
REM
REM Run started: Mon, 28 Sep 2020 10:24:35 +0100 in /lustre/scratch/uccabz1/launch_tmp/launcher_2020-09-28-08-29-47-493569
REM CASTEP 20.1 from code version af48c487+ pr-geom-scf-spinfix Tue Jun 2 15:39:59 2020 +0100
REM Functional PBE for solids (2008) Relativity Koelling-Harmon Dispersion off
REM Cut-off 340.0000 eV Grid scale 1.7500 Gmax 16.5316 1/A FBSC none
REM MP grid 3 3 2 Offset 0.000 0.000 0.000 No. kpts 6 Spacing 0.07
REM Total runtime: 3331.02 s
REM Overall efficiency: 93.1667 %
REM
REM
REM
REM compiler GCC version 4.9.2
REM options -cpp -iprefix /lustre/shared/ucl/apps/gcc/4.9.2/bin/../lib/gcc/x86_64-unknown-linux-gnu/4.9.2/ -mtune=corei7 -march=x86-64 -g -Og
REM COMMAND_LINE
REM seed -730951476 1110845428 2142879478 -494638620 1297343614 1324507044 453995907 1221632783 -1517194890 -11581465 -46334910 477318512
REM
REM Se 3|2.1|7|7|9|40:41:32(qc=5)
REM Ag 3|2.2|7|7|9|40U:50:41:42(qc=5)
REM 
CELL 1.54180    5.43310    6.06822    7.73321   90.00000  108.14386   90.00000
LATT -1
SFAC Se Ag 
Se     1  0.3687338937963  0.2498189134394  0.1860043932679 1.0
Se     1 -0.3687338937963  0.2498189134394 -0.1860043932679 1.0
Se     1 -0.3687338937963 -0.2498189134394 -0.1860043932679 1.0
Se     1  0.3687338937963 -0.2498189134394  0.1860043932679 1.0
Ag     2  0.1330041455877  0.2504938702692 -0.1705498294047 1.0
Ag     2 -0.1330041455877  0.2504938702692  0.1705498294047 1.0
Ag     2 -0.1330041455877 -0.2504938702692  0.1705498294047 1.0
Ag     2  0.1330041455877 -0.2504938702692 -0.1705498294047 1.0
Ag     2  0.2475365427060 -0.2499734933990 -0.5010431098772 1.0
Ag     2 -0.2475365427060 -0.2499734933990  0.5010431098772 1.0
Ag     2 -0.2475365427060  0.2499734933990  0.5010431098772 1.0
Ag     2  0.2475365427060  0.2499734933990 -0.5010431098772 1.0
END
