TITL Ag2Se-P21c-200928-105222-c8a583 0.0090 233.075796 -4.61178381E+004 0 0 12 (P21/c) n - 1
REM
REM Run started: Mon, 28 Sep 2020 11:29:55 +0100 in /lustre/scratch/uccabz1/launch_tmp/launcher_2020-09-28-09-52-21-358899
REM CASTEP 20.1 from code version af48c487+ pr-geom-scf-spinfix Tue Jun 2 15:39:59 2020 +0100
REM Functional PBE for solids (2008) Relativity Koelling-Harmon Dispersion off
REM Cut-off 340.0000 eV Grid scale 1.7500 Gmax 16.5316 1/A FBSC none
REM MP grid 4 3 2 Offset 0.000 0.000 0.000 No. kpts 8 Spacing 0.07
REM Total runtime: 2628.43 s
REM Overall efficiency: 95.6 %
REM
REM
REM
REM compiler GCC version 4.9.2
REM options -cpp -iprefix /lustre/shared/ucl/apps/gcc/4.9.2/bin/../lib/gcc/x86_64-unknown-linux-gnu/4.9.2/ -mtune=corei7 -march=x86-64 -g -Og
REM COMMAND_LINE
REM seed -243290892 909596543 1196417946 648647054 1794014838 592257637 346548642 -1628655105 19212000 435459681 1847904279 1432748209
REM
REM Se 3|2.1|7|7|9|40:41:32(qc=5)
REM Ag 3|2.2|7|7|9|40U:50:41:42(qc=5)
REM 
CELL 1.54180    4.76627    6.35451    7.71149   90.00000   93.69112   90.00000
LATT -1
SFAC Se Ag 
Se     1  0.1466587413410 -0.0494843567988 -0.2196239859471 1.0
Se     1  0.3533412586590  0.4505156432012  0.2196239859471 1.0
Se     1 -0.1466587413410  0.0494843567988  0.2196239859471 1.0
Se     1 -0.3533412586590 -0.4505156432012 -0.2196239859471 1.0
Ag     2  0.1377164164440  0.3728862387411 -0.1173490086856 1.0
Ag     2  0.3622835835560 -0.1271137612589  0.1173490086856 1.0
Ag     2 -0.1377164164440 -0.3728862387411  0.1173490086856 1.0
Ag     2 -0.3622835835560  0.1271137612589 -0.1173490086856 1.0
Ag     2  0.2538548437028 -0.1239540146866  0.4624939051028 1.0
Ag     2  0.2461451562972  0.3760459853134 -0.4624939051028 1.0
Ag     2 -0.2538548437028  0.1239540146866 -0.4624939051028 1.0
Ag     2 -0.2461451562972 -0.3760459853134  0.4624939051028 1.0
END
