TITL Ag2Se-P21c-200928-093300-1df1e3 -0.0558 233.069369 -4.61189091E+004 0 0 12 (P21/c) n - 1
REM
REM Run started: Mon, 28 Sep 2020 10:36:46 +0100 in /lustre/scratch/uccabz1/launch_tmp/launcher_2020-09-28-08-32-58-534648
REM CASTEP 20.1 from code version af48c487+ pr-geom-scf-spinfix Tue Jun 2 15:39:59 2020 +0100
REM Functional PBE for solids (2008) Relativity Koelling-Harmon Dispersion off
REM Cut-off 340.0000 eV Grid scale 1.7500 Gmax 16.5316 1/A FBSC none
REM MP grid 4 3 2 Offset 0.000 0.000 0.000 No. kpts 8 Spacing 0.07
REM Total runtime: 3866.68 s
REM Overall efficiency: 93.125 %
REM
REM
REM
REM compiler GCC version 4.9.2
REM options -cpp -iprefix /lustre/shared/ucl/apps/gcc/4.9.2/bin/../lib/gcc/x86_64-unknown-linux-gnu/4.9.2/ -mtune=corei7 -march=x86-64 -g -Og
REM COMMAND_LINE
REM seed 1788703160 1548534441 1897692660 -1746035933 137669693 618253690 1620420854 -301317129 -2085140318 -828652 664313869 -711454329
REM
REM Se 3|2.1|7|7|9|40:41:32(qc=5)
REM Ag 3|2.2|7|7|9|40U:50:41:42(qc=5)
REM 
CELL 1.54180    4.17206    7.05527    8.40602   90.00000  109.61745   90.00000
LATT -1
SFAC Se Ag 
Se     1  0.2197172524396  0.2804420554883  0.3989247440571 1.0
Se     1 -0.2197172524396 -0.2195579445117  0.1010752559429 1.0
Se     1 -0.2197172524396 -0.2804420554883 -0.3989247440571 1.0
Se     1  0.2197172524396  0.2195579445117 -0.1010752559429 1.0
Ag     2 -0.1775294153116  0.3818493121474  0.0850835802734 1.0
Ag     2  0.1775294153116 -0.1181506878526  0.4149164197266 1.0
Ag     2  0.1775294153116 -0.3818493121474 -0.0850835802734 1.0
Ag     2 -0.1775294153116  0.1181506878526 -0.4149164197266 1.0
Ag     2  0.4727187798880 -0.0756896534391 -0.2229661249733 1.0
Ag     2 -0.4727187798880  0.4243103465609 -0.2770338750267 1.0
Ag     2 -0.4727187798880  0.0756896534391  0.2229661249733 1.0
Ag     2  0.4727187798880 -0.4243103465609  0.2770338750267 1.0
END
