TITL Ag2Se-P21c-200928-112734-9a1178 -0.0346 233.400745 -4.61189077E+004 0 0 12 (P21/c) n - 1
REM
REM Run started: Mon, 28 Sep 2020 12:18:43 +0100 in /lustre/scratch/uccabz1/launch_tmp/launcher_2020-09-28-10-27-32-687823
REM CASTEP 20.1 from code version af48c487+ pr-geom-scf-spinfix Tue Jun 2 15:39:59 2020 +0100
REM Functional PBE for solids (2008) Relativity Koelling-Harmon Dispersion off
REM Cut-off 340.0000 eV Grid scale 1.7500 Gmax 16.5316 1/A FBSC none
REM MP grid 4 3 2 Offset 0.000 0.000 0.000 No. kpts 8 Spacing 0.07
REM Total runtime: 3112.63 s
REM Overall efficiency: 93.1429 %
REM
REM
REM
REM compiler GCC version 4.9.2
REM options -cpp -iprefix /lustre/shared/ucl/apps/gcc/4.9.2/bin/../lib/gcc/x86_64-unknown-linux-gnu/4.9.2/ -mtune=corei7 -march=x86-64 -g -Og
REM COMMAND_LINE
REM seed -1433680738 2022115398 337531645 1651445370 1684926267 763860727 863943233 487101114 -2140035864 -1307561825 -380871097 1810008596
REM
REM Se 3|2.1|7|7|9|40:41:32(qc=5)
REM Ag 3|2.2|7|7|9|40U:50:41:42(qc=5)
REM 
CELL 1.54180    4.17283    7.05239    8.41962   90.00000  109.61274   90.00000
LATT -1
SFAC Se Ag 
Se     1  0.2712058284583  0.2801005507679  0.0968826016617 1.0
Se     1 -0.2712058284583 -0.2198994492321  0.4031173983383 1.0
Se     1 -0.2712058284583 -0.2801005507679 -0.0968826016617 1.0
Se     1  0.2712058284583  0.2198994492321 -0.4031173983383 1.0
Ag     2  0.0364836855320 -0.0796431392610 -0.2736264537399 1.0
Ag     2 -0.0364836855320  0.4203568607390 -0.2263735462601 1.0
Ag     2 -0.0364836855320  0.0796431392610  0.2736264537399 1.0
Ag     2  0.0364836855320 -0.4203568607390  0.2263735462601 1.0
Ag     2  0.3321929757917 -0.1173838481119  0.0894387976557 1.0
Ag     2 -0.3321929757917  0.3826161518881  0.4105612023443 1.0
Ag     2 -0.3321929757917  0.1173838481119 -0.0894387976557 1.0
Ag     2  0.3321929757917 -0.3826161518881 -0.4105612023443 1.0
END
