TITL Ag2Se-P21c-200928-094239-c5b417 -0.0209 233.136395 -4.61189661E+004 0 0 12 (P21/c) n - 1
REM
REM Run started: Mon, 28 Sep 2020 10:38:51 +0100 in /lustre/scratch/uccabz1/launch_tmp/launcher_2020-09-28-08-42-37-800913
REM CASTEP 20.1 from code version af48c487+ pr-geom-scf-spinfix Tue Jun 2 15:39:59 2020 +0100
REM Functional PBE for solids (2008) Relativity Koelling-Harmon Dispersion off
REM Cut-off 340.0000 eV Grid scale 1.7500 Gmax 16.5316 1/A FBSC none
REM MP grid 4 3 2 Offset 0.000 0.000 0.000 No. kpts 8 Spacing 0.07
REM Total runtime: 3417.16 s
REM Overall efficiency: 93.2857 %
REM
REM
REM
REM compiler GCC version 4.9.2
REM options -cpp -iprefix /lustre/shared/ucl/apps/gcc/4.9.2/bin/../lib/gcc/x86_64-unknown-linux-gnu/4.9.2/ -mtune=corei7 -march=x86-64 -g -Og
REM COMMAND_LINE
REM seed -713449462 378134931 1532102450 763264334 -769192013 -1095839033 1892434387 1290778274 -527430565 1213327385 1126096246 -747777195
REM
REM Se 3|2.1|7|7|9|40:41:32(qc=5)
REM Ag 3|2.2|7|7|9|40U:50:41:42(qc=5)
REM 
CELL 1.54180    4.20294    6.87500    8.34786   90.00000  104.86845   90.00000
LATT -1
SFAC Se Ag 
Se     1 -0.3148953841363  0.2434916139547 -0.1505872898937 1.0
Se     1  0.3148953841363 -0.2565083860453 -0.3494127101063 1.0
Se     1  0.3148953841363 -0.2434916139547  0.1505872898937 1.0
Se     1 -0.3148953841363  0.2565083860453  0.3494127101063 1.0
Ag     2 -0.2791579769633 -0.1433511001850 -0.0533897896990 1.0
Ag     2  0.2791579769633  0.3566488998150 -0.4466102103010 1.0
Ag     2  0.2791579769633  0.1433511001850  0.0533897896990 1.0
Ag     2 -0.2791579769633 -0.3566488998150  0.4466102103010 1.0
Ag     2  0.1638285082111 -0.0077776885363  0.3724651119452 1.0
Ag     2 -0.1638285082111 -0.5077776885363  0.1275348880548 1.0
Ag     2 -0.1638285082111  0.0077776885363 -0.3724651119452 1.0
Ag     2  0.1638285082111  0.5077776885363 -0.1275348880548 1.0
END
