TITL Ag2Se-P2m-200928-124623-282f2d -0.0125 240.842862 -4.61166296E+004 0 0 12 (P2/m) n - 1
REM
REM Run started: Mon, 28 Sep 2020 14:05:33 +0100 in /lustre/scratch/uccabz1/launch_tmp/launcher_2020-09-28-11-46-21-733375
REM CASTEP 20.1 from code version af48c487+ pr-geom-scf-spinfix Tue Jun 2 15:39:59 2020 +0100
REM Functional PBE for solids (2008) Relativity Koelling-Harmon Dispersion off
REM Cut-off 340.0000 eV Grid scale 1.7500 Gmax 16.5316 1/A FBSC none
REM MP grid 3 3 2 Offset 0.000 0.000 0.000 No. kpts 6 Spacing 0.07
REM Total runtime: 4800.13 s
REM Overall efficiency: 94.1429 %
REM
REM
REM
REM compiler GCC version 4.9.2
REM options -cpp -iprefix /lustre/shared/ucl/apps/gcc/4.9.2/bin/../lib/gcc/x86_64-unknown-linux-gnu/4.9.2/ -mtune=corei7 -march=x86-64 -g -Og
REM COMMAND_LINE
REM seed -1035115962 -1822616642 -1686018423 1768075934 1556167748 -1625231324 -1256229660 117047983 174301862 -1486422420 1979274191 298943454
REM
REM Se 3|2.1|7|7|9|40:41:32(qc=5)
REM Ag 3|2.2|7|7|9|40U:50:41:42(qc=5)
REM 
CELL 1.54180    5.40472    6.04736    7.69156   90.00000  106.65810   90.00000
LATT -1
SFAC Se Ag 
Se     1 -0.1122832481127 -0.2499444822425 -0.3124019902751 1.0
Se     1  0.1122832481127 -0.2499444822425  0.3124019902751 1.0
Se     1  0.1122832481127  0.2499444822425  0.3124019902751 1.0
Se     1 -0.1122832481127  0.2499444822425 -0.3124019902751 1.0
Ag     2 -0.2545784559989  0.2517760575521 -0.0040146486074 1.0
Ag     2  0.2545784559989  0.2517760575521  0.0040146486074 1.0
Ag     2  0.2545784559989 -0.2517760575521  0.0040146486074 1.0
Ag     2 -0.2545784559989 -0.2517760575521 -0.0040146486074 1.0
Ag     2  0.3816054055965  0.2487682879914 -0.3348614061533 1.0
Ag     2 -0.3816054055965  0.2487682879914  0.3348614061533 1.0
Ag     2 -0.3816054055965 -0.2487682879914  0.3348614061533 1.0
Ag     2  0.3816054055965 -0.2487682879914 -0.3348614061533 1.0
END
