TITL Ag2Se-P2m-200928-132957-d392c9 0.0064 242.442190 -4.61166328E+004 0 0 12 (P2/m) n - 1
REM
REM Run started: Mon, 28 Sep 2020 15:14:16 +0100 in /lustre/scratch/uccabz1/launch_tmp/launcher_2020-09-28-12-29-54-478676
REM CASTEP 20.1 from code version af48c487+ pr-geom-scf-spinfix Tue Jun 2 15:39:59 2020 +0100
REM Functional PBE for solids (2008) Relativity Koelling-Harmon Dispersion off
REM Cut-off 340.0000 eV Grid scale 1.7500 Gmax 16.5316 1/A FBSC none
REM MP grid 3 3 2 Offset 0.000 0.000 0.000 No. kpts 6 Spacing 0.07
REM Total runtime: 5735.63 s
REM Overall efficiency: 94.25 %
REM
REM
REM
REM compiler GCC version 4.9.2
REM options -cpp -iprefix /lustre/shared/ucl/apps/gcc/4.9.2/bin/../lib/gcc/x86_64-unknown-linux-gnu/4.9.2/ -mtune=corei7 -march=x86-64 -g -Og
REM COMMAND_LINE
REM seed 756928667 662028647 1308768156 1583622530 -1133928491 -152811149 1255900175 -723591254 -1605497635 1170322914 -1966101735 1630015911
REM
REM Se 3|2.1|7|7|9|40:41:32(qc=5)
REM Ag 3|2.2|7|7|9|40U:50:41:42(qc=5)
REM 
CELL 1.54180    5.43997    6.04225    7.85504   90.00000  110.11601   90.00000
LATT -1
SFAC Se Ag 
Se     1 -0.3524079357492 -0.2500049020622  0.3143628517167 1.0
Se     1  0.3524079357492 -0.2500049020622 -0.3143628517167 1.0
Se     1  0.3524079357492  0.2500049020622 -0.3143628517167 1.0
Se     1 -0.3524079357492  0.2500049020622  0.3143628517167 1.0
Ag     2 -0.2486735735512  0.2485881702329 -0.0012473388152 1.0
Ag     2  0.2486735735512  0.2485881702329  0.0012473388152 1.0
Ag     2  0.2486735735512 -0.2485881702329  0.0012473388152 1.0
Ag     2 -0.2486735735512 -0.2485881702329 -0.0012473388152 1.0
Ag     2  0.1507325783840 -0.2510642106224  0.3264125434742 1.0
Ag     2 -0.1507325783840 -0.2510642106224 -0.3264125434742 1.0
Ag     2 -0.1507325783840  0.2510642106224 -0.3264125434742 1.0
Ag     2  0.1507325783840  0.2510642106224  0.3264125434742 1.0
END
