TITL Ag2Se-P21c-200928-114649-691b34 -0.0046 231.830473 -4.61189114E+004 0 0 12 (P21/c) n - 1
REM
REM Run started: Mon, 28 Sep 2020 12:54:53 +0100 in /lustre/scratch/uccabz1/launch_tmp/launcher_2020-09-28-10-46-48-026882
REM CASTEP 20.1 from code version af48c487+ pr-geom-scf-spinfix Tue Jun 2 15:39:59 2020 +0100
REM Functional PBE for solids (2008) Relativity Koelling-Harmon Dispersion off
REM Cut-off 340.0000 eV Grid scale 1.7500 Gmax 16.5316 1/A FBSC none
REM MP grid 4 3 2 Offset 0.000 0.000 0.000 No. kpts 8 Spacing 0.07
REM Total runtime: 4125.77 s
REM Overall efficiency: 93.375 %
REM
REM
REM
REM compiler GCC version 4.9.2
REM options -cpp -iprefix /lustre/shared/ucl/apps/gcc/4.9.2/bin/../lib/gcc/x86_64-unknown-linux-gnu/4.9.2/ -mtune=corei7 -march=x86-64 -g -Og
REM COMMAND_LINE
REM seed -656780864 1626457821 1078731741 -1852839584 848118551 -1784578176 2141224760 -289111135 1822449580 -1931915193 186639736 -2014710463
REM
REM Se 3|2.1|7|7|9|40:41:32(qc=5)
REM Ag 3|2.2|7|7|9|40U:50:41:42(qc=5)
REM 
CELL 1.54180    4.16277    6.98443    8.49159   90.00000  110.11504   90.00000
LATT -1
SFAC Se Ag 
Se     1 -0.2822050884726 -0.2148882992210 -0.0972083289833 1.0
Se     1  0.2822050884726  0.2851117007790 -0.4027916710167 1.0
Se     1  0.2822050884726  0.2148882992210  0.0972083289833 1.0
Se     1 -0.2822050884726 -0.2851117007790  0.4027916710167 1.0
Ag     2  0.3254205015730 -0.1151772732078 -0.4130017308376 1.0
Ag     2 -0.3254205015730  0.3848227267922 -0.0869982691624 1.0
Ag     2 -0.3254205015730  0.1151772732078  0.4130017308376 1.0
Ag     2  0.3254205015730 -0.3848227267922  0.0869982691624 1.0
Ag     2 -0.0326075182170  0.0833709177907 -0.2270129450701 1.0
Ag     2  0.0326075182170 -0.4166290822093 -0.2729870549299 1.0
Ag     2  0.0326075182170 -0.0833709177907  0.2270129450701 1.0
Ag     2 -0.0326075182170  0.4166290822093  0.2729870549299 1.0
END
