TITL Ag2Se-P2m-200928-124913-be1be6 0.0208 240.973784 -4.61166338E+004 0 0 12 (P2/m) n - 1
REM
REM Run started: Mon, 28 Sep 2020 14:49:43 +0100 in /scratch/scratch/uccabz1/launch_tmp/launcher_2020-09-28-11-49-11-458595
REM CASTEP 19.11| from code version Version unavailable
REM Functional PBE for solids (2008) Relativity Koelling-Harmon Dispersion off
REM Cut-off 340.0000 eV Grid scale 1.7500 Gmax 16.5316 1/A FBSC none
REM MP grid 3 3 2 Offset 0.000 0.000 0.000 No. kpts 6 Spacing 0.07
REM Total runtime: 7002.3 s
REM Overall efficiency: 95.125 %
REM
REM
REM
REM compiler GCC version 4.9.2
REM options -cpp -iprefix /scratch/UCL/applications/gcc/4.9.2/bin/../lib/gcc/x86_64-unknown-linux-gnu/4.9.2/ -mtune=corei7 -march=x86-64 -g -O2
REM COMMAND_LINE
REM seed 195193658 -261918703 49612607 -1380217290 -1042333954 -588487131 -530974650 -1620140470 -1230750811 92076528 200427104 1981270448
REM
REM Se 3|2.1|7|7|9|40:41:32(qc=5)
REM Ag 3|2.2|7|7|9|40U:50:41:42(qc=5)
REM 
CELL 1.54180    5.41149    6.05519    7.68323   90.00000  106.83293   90.00000
LATT -1
SFAC Se Ag 
Se     1 -0.1144570462089 -0.2486194719865  0.1879066074003 1.0
Se     1  0.1144570462089 -0.2486194719865 -0.1879066074003 1.0
Se     1  0.1144570462089  0.2486194719865 -0.1879066074003 1.0
Se     1 -0.1144570462089  0.2486194719865  0.1879066074003 1.0
Ag     2 -0.3800552345207 -0.2493635134987 -0.1652712318467 1.0
Ag     2  0.3800552345207 -0.2493635134987  0.1652712318467 1.0
Ag     2  0.3800552345207  0.2493635134987  0.1652712318467 1.0
Ag     2 -0.3800552345207  0.2493635134987 -0.1652712318467 1.0
Ag     2  0.2548545816995 -0.2492539619134 -0.4968524621421 1.0
Ag     2 -0.2548545816995 -0.2492539619134  0.4968524621421 1.0
Ag     2 -0.2548545816995  0.2492539619134  0.4968524621421 1.0
Ag     2  0.2548545816995  0.2492539619134 -0.4968524621421 1.0
END
