TITL Ag2Se-P21c-200928-114157-327844 -0.0319 227.657441 -4.61189213E+004 0 0 12 (P21/c) n - 1
REM
REM Run started: Mon, 28 Sep 2020 12:34:30 +0100 in /lustre/scratch/uccabz1/launch_tmp/launcher_2020-09-28-10-41-55-666977
REM CASTEP 20.1 from code version af48c487+ pr-geom-scf-spinfix Tue Jun 2 15:39:59 2020 +0100
REM Functional PBE for solids (2008) Relativity Koelling-Harmon Dispersion off
REM Cut-off 340.0000 eV Grid scale 1.7500 Gmax 16.5316 1/A FBSC none
REM MP grid 4 2 3 Offset 0.000 0.000 0.000 No. kpts 6 Spacing 0.07
REM Total runtime: 3776.87 s
REM Overall efficiency: 95.6667 %
REM
REM
REM
REM compiler GCC version 4.9.2
REM options -cpp -iprefix /lustre/shared/ucl/apps/gcc/4.9.2/bin/../lib/gcc/x86_64-unknown-linux-gnu/4.9.2/ -mtune=corei7 -march=x86-64 -g -Og
REM COMMAND_LINE
REM seed -1258965168 56821753 -1303196001 -1749190119 1960902505 1995132608 372545644 -1418633878 -1687296879 -856393819 -613822574 2058157495
REM
REM Se 3|2.1|7|7|9|40:41:32(qc=5)
REM Ag 3|2.2|7|7|9|40U:50:41:42(qc=5)
REM 
CELL 1.54180    4.01738    8.58201    6.80400   90.00000  103.95697   90.00000
LATT -1
SFAC Se Ag 
Se     1  0.1670404442936  0.3727366761423 -0.2855620279270 1.0
Se     1 -0.1670404442936 -0.1272633238577 -0.2144379720730 1.0
Se     1 -0.1670404442936 -0.3727366761423  0.2855620279270 1.0
Se     1  0.1670404442936  0.1272633238577  0.2144379720730 1.0
Ag     2  0.4086331252338  0.4000587220423  0.3365667112531 1.0
Ag     2 -0.4086331252338 -0.0999412779577  0.1634332887469 1.0
Ag     2 -0.4086331252338 -0.4000587220423 -0.3365667112531 1.0
Ag     2  0.4086331252338  0.0999412779577 -0.1634332887469 1.0
Ag     2  0.2312981646984 -0.1239765608717  0.4861175757526 1.0
Ag     2 -0.2312981646984  0.3760234391283  0.0138824242474 1.0
Ag     2 -0.2312981646984  0.1239765608717 -0.4861175757526 1.0
Ag     2  0.2312981646984 -0.3760234391283 -0.0138824242474 1.0
END
