TITL Ag2Se-P21c-200928-112704-b3892c 0.0287 233.365927 -4.61188819E+004 0 0 12 (P21/c) n - 1
REM
REM Run started: Mon, 28 Sep 2020 12:46:35 +0100 in /scratch/scratch/uccabz1/launch_tmp/launcher_2020-09-28-10-27-03-035215
REM CASTEP 19.11| from code version Version unavailable
REM Functional PBE for solids (2008) Relativity Koelling-Harmon Dispersion off
REM Cut-off 340.0000 eV Grid scale 1.7500 Gmax 16.5316 1/A FBSC none
REM MP grid 4 2 2 Offset 0.000 0.000 0.000 No. kpts 4 Spacing 0.07
REM Total runtime: 4807.04 s
REM Overall efficiency: 94.2222 %
REM
REM
REM
REM compiler GCC version 4.9.2
REM options -cpp -iprefix /scratch/UCL/applications/gcc/4.9.2/bin/../lib/gcc/x86_64-unknown-linux-gnu/4.9.2/ -mtune=corei7 -march=x86-64 -g -O2
REM COMMAND_LINE
REM seed -888395547 -1564242042 354448281 109638944 -1084281251 -1600350362 1812155592 461654325 1267318495 -1806984906 -1467726568 -875616221
REM
REM Se 3|2.1|7|7|9|40:41:32(qc=5)
REM Ag 3|2.2|7|7|9|40U:50:41:42(qc=5)
REM 
CELL 1.54180    4.14029    7.61490    7.64623   90.00000  104.52331   90.00000
LATT -1
SFAC Se Ag 
Se     1 -0.1498862162958  0.4054729562764 -0.2266384733143 1.0
Se     1  0.1498862162958 -0.0945270437236 -0.2733615266857 1.0
Se     1  0.1498862162958 -0.4054729562764  0.2266384733143 1.0
Se     1 -0.1498862162958  0.0945270437236  0.2733615266857 1.0
Ag     2  0.2829746642809 -0.0916266765473  0.0965689011668 1.0
Ag     2 -0.2829746642809  0.4083733234527  0.4034310988332 1.0
Ag     2 -0.2829746642809  0.0916266765473 -0.0965689011668 1.0
Ag     2  0.2829746642809 -0.4083733234527 -0.4034310988332 1.0
Ag     2  0.3048888248054  0.2909391769991  0.0800095376127 1.0
Ag     2 -0.3048888248054 -0.2090608230009  0.4199904623873 1.0
Ag     2 -0.3048888248054 -0.2909391769991 -0.0800095376127 1.0
Ag     2  0.3048888248054  0.2090608230009 -0.4199904623873 1.0
END
