TITL Ag2Se-P21c-200928-105541-b13e2e 0.0083 242.580048 -4.61187742E+004 0 0 12 (P21/c) n - 1
REM
REM Run started: Mon, 28 Sep 2020 12:02:35 +0100 in /lustre/scratch/uccabz1/launch_tmp/launcher_2020-09-28-09-55-39-882346
REM CASTEP 20.1 from code version af48c487+ pr-geom-scf-spinfix Tue Jun 2 15:39:59 2020 +0100
REM Functional PBE for solids (2008) Relativity Koelling-Harmon Dispersion off
REM Cut-off 340.0000 eV Grid scale 1.7500 Gmax 16.5316 1/A FBSC none
REM MP grid 4 2 3 Offset 0.000 0.000 0.000 No. kpts 6 Spacing 0.07
REM Total runtime: 4250.33 s
REM Overall efficiency: 95.2857 %
REM
REM
REM
REM compiler GCC version 4.9.2
REM options -cpp -iprefix /lustre/shared/ucl/apps/gcc/4.9.2/bin/../lib/gcc/x86_64-unknown-linux-gnu/4.9.2/ -mtune=corei7 -march=x86-64 -g -Og
REM COMMAND_LINE
REM seed -88602678 -363561684 1598256810 1736528385 508555780 1991073262 211311874 -1565308299 -141057539 -563152101 414191412 1548427925
REM
REM Se 3|2.1|7|7|9|40:41:32(qc=5)
REM Ag 3|2.2|7|7|9|40U:50:41:42(qc=5)
REM 
CELL 1.54180    4.44599    7.68832    7.10408   90.00000   92.61635   90.00000
LATT -1
SFAC Se Ag 
Se     1  0.2058945527789  0.0635231177082 -0.1939090625471 1.0
Se     1 -0.2058945527789 -0.4364768822918 -0.3060909374529 1.0
Se     1 -0.2058945527789 -0.0635231177082  0.1939090625471 1.0
Se     1  0.2058945527789  0.4364768822918  0.3060909374529 1.0
Ag     2  0.2399103114279  0.3914910618419 -0.0571623862505 1.0
Ag     2 -0.2399103114279 -0.1085089381581 -0.4428376137495 1.0
Ag     2 -0.2399103114279 -0.3914910618419  0.0571623862505 1.0
Ag     2  0.2399103114279  0.1085089381581  0.4428376137495 1.0
Ag     2  0.3063567156520 -0.2283373049146  0.2744118877307 1.0
Ag     2 -0.3063567156520  0.2716626950854  0.2255881122693 1.0
Ag     2 -0.3063567156520  0.2283373049146 -0.2744118877307 1.0
Ag     2  0.3063567156520 -0.2716626950854 -0.2255881122693 1.0
END
