TITL Ag2Se-P21c-200928-104733-59b78f -0.0090 230.341729 -4.61190480E+004 0 0 12 (P21/c) n - 1
REM
REM Run started: Mon, 28 Sep 2020 12:21:12 +0100 in /lustre/scratch/uccabz1/launch_tmp/launcher_2020-09-28-09-47-32-065818
REM CASTEP 20.1 from code version af48c487+ pr-geom-scf-spinfix Tue Jun 2 15:39:59 2020 +0100
REM Functional PBE for solids (2008) Relativity Koelling-Harmon Dispersion off
REM Cut-off 340.0000 eV Grid scale 1.7500 Gmax 16.5316 1/A FBSC none
REM MP grid 3 2 3 Offset 0.000 0.000 0.000 No. kpts 5 Spacing 0.07
REM Total runtime: 5675.83 s
REM Overall efficiency: 81 %
REM
REM
REM
REM compiler GCC version 4.9.2
REM options -cpp -iprefix /lustre/shared/ucl/apps/gcc/4.9.2/bin/../lib/gcc/x86_64-unknown-linux-gnu/4.9.2/ -mtune=corei7 -march=x86-64 -g -Og
REM COMMAND_LINE
REM seed 864908702 -12695331 669059066 276775421 385366155 1674488802 1227772650 528358615 1485786614 1818445758 -215695778 407463191
REM
REM Se 3|2.1|7|7|9|40:41:32(qc=5)
REM Ag 3|2.2|7|7|9|40U:50:41:42(qc=5)
REM 
CELL 1.54180    4.90420    7.16030    6.60581   90.00000   96.78493   90.00000
LATT -1
SFAC Se Ag 
Se     1 -0.3089518083348 -0.4594656308591  0.2803097965196 1.0
Se     1 -0.1910481916651  0.0405343691409 -0.2803097965196 1.0
Se     1  0.3089518083348  0.4594656308591 -0.2803097965196 1.0
Se     1  0.1910481916651 -0.0405343691409  0.2803097965196 1.0
Ag     2  0.1832578148786 -0.3495095511994  0.0463879425302 1.0
Ag     2  0.3167421851214  0.1504904488006 -0.0463879425302 1.0
Ag     2 -0.1832578148786  0.3495095511994 -0.0463879425302 1.0
Ag     2 -0.3167421851214 -0.1504904488006  0.0463879425302 1.0
Ag     2 -0.2915064147035  0.1505978899222  0.3290046139288 1.0
Ag     2 -0.2084935852965 -0.3494021100778 -0.3290046139288 1.0
Ag     2  0.2915064147035 -0.1505978899222 -0.3290046139288 1.0
Ag     2  0.2084935852965  0.3494021100778  0.3290046139288 1.0
END
