TITL Ag2Se-P21c-200928-111014-2d3fb9 -0.0258 231.534278 -4.61190353E+004 0 0 12 (P21/c) n - 1
REM
REM Run started: Mon, 28 Sep 2020 12:30:34 +0100 in /lustre/scratch/uccabz1/launch_tmp/launcher_2020-09-28-10-10-11-486646
REM CASTEP 20.1 from code version af48c487+ pr-geom-scf-spinfix Tue Jun 2 15:39:59 2020 +0100
REM Functional PBE for solids (2008) Relativity Koelling-Harmon Dispersion off
REM Cut-off 340.0000 eV Grid scale 1.7500 Gmax 16.5316 1/A FBSC none
REM MP grid 4 3 2 Offset 0.000 0.000 0.000 No. kpts 8 Spacing 0.07
REM Total runtime: 4863.67 s
REM Overall efficiency: 93.2857 %
REM
REM
REM
REM compiler GCC version 4.9.2
REM options -cpp -iprefix /lustre/shared/ucl/apps/gcc/4.9.2/bin/../lib/gcc/x86_64-unknown-linux-gnu/4.9.2/ -mtune=corei7 -march=x86-64 -g -Og
REM COMMAND_LINE
REM seed 1082424630 1773947389 -744640263 1586643961 -966780766 -1554099659 -1225564389 -1676391654 -250656751 -838203276 -1399091006 736379235
REM
REM Se 3|2.1|7|7|9|40:41:32(qc=5)
REM Ag 3|2.2|7|7|9|40U:50:41:42(qc=5)
REM 
CELL 1.54180    4.42364    6.91259    7.89027   90.00000  106.33582   90.00000
LATT -1
SFAC Se Ag 
Se     1 -0.1649126348468 -0.2495999916584  0.1522884334642 1.0
Se     1  0.1649126348468  0.2504000083416  0.3477115665358 1.0
Se     1  0.1649126348468  0.2495999916584 -0.1522884334642 1.0
Se     1 -0.1649126348468 -0.2504000083416 -0.3477115665358 1.0
Ag     2 -0.2432936101170  0.3589093298378 -0.4630573176618 1.0
Ag     2  0.2432936101170 -0.1410906701622 -0.0369426823382 1.0
Ag     2  0.2432936101170 -0.3589093298378  0.4630573176618 1.0
Ag     2 -0.2432936101170  0.1410906701622  0.0369426823382 1.0
Ag     2  0.4376542036335 -0.5255581825656  0.1644240270426 1.0
Ag     2 -0.4376542036335 -0.0255581825656  0.3355759729574 1.0
Ag     2 -0.4376542036335  0.5255581825656 -0.1644240270426 1.0
Ag     2  0.4376542036335  0.0255581825656 -0.3355759729574 1.0
END
