TITL Ag2Se-P21c-200928-104240-42cf2d 0.0756 233.319633 -4.61188839E+004 0 0 12 (P21/c) n - 1
REM
REM Run started: Mon, 28 Sep 2020 11:49:54 +0100 in /scratch/scratch/uccabz1/launch_tmp/launcher_2020-09-28-09-42-38-783626
REM CASTEP 19.11| from code version Version unavailable
REM Functional PBE for solids (2008) Relativity Koelling-Harmon Dispersion off
REM Cut-off 340.0000 eV Grid scale 1.7500 Gmax 16.5316 1/A FBSC none
REM MP grid 4 2 2 Offset 0.000 0.000 0.000 No. kpts 4 Spacing 0.07
REM Total runtime: 4187.68 s
REM Overall efficiency: 95.7143 %
REM
REM
REM
REM compiler GCC version 4.9.2
REM options -cpp -iprefix /scratch/UCL/applications/gcc/4.9.2/bin/../lib/gcc/x86_64-unknown-linux-gnu/4.9.2/ -mtune=corei7 -march=x86-64 -g -O2
REM COMMAND_LINE
REM seed -290690293 1669641249 -779312302 -404876221 376546284 -1379453223 -1814221693 -37151044 1481249568 1996639041 1525294158 1198908415
REM
REM Se 3|2.1|7|7|9|40:41:32(qc=5)
REM Ag 3|2.2|7|7|9|40U:50:41:42(qc=5)
REM 
CELL 1.54180    4.13990    7.63248    7.61889   90.00000  104.26232   90.00000
LATT -1
SFAC Se Ag 
Se     1  0.3484668823346  0.4064543208788 -0.2262948135452 1.0
Se     1 -0.3484668823346 -0.0935456791211 -0.2737051864548 1.0
Se     1 -0.3484668823346 -0.4064543208788  0.2262948135452 1.0
Se     1  0.3484668823346  0.0935456791211  0.2737051864548 1.0
Ag     2 -0.1967255782695  0.2883463037380  0.0803925775908 1.0
Ag     2  0.1967255782695 -0.2116536962620  0.4196074224092 1.0
Ag     2  0.1967255782695 -0.2883463037380 -0.0803925775908 1.0
Ag     2 -0.1967255782695  0.2116536962620 -0.4196074224092 1.0
Ag     2  0.2174299350505  0.0905901612941 -0.0983748698175 1.0
Ag     2 -0.2174299350505 -0.4094098387059 -0.4016251301825 1.0
Ag     2 -0.2174299350505 -0.0905901612941  0.0983748698175 1.0
Ag     2  0.2174299350505  0.4094098387059  0.4016251301825 1.0
END
