TITL Ag2Se-P21c-200928-113838-adef49 0.0165 230.526991 -4.61190291E+004 0 0 12 (P21/c) n - 1
REM
REM Run started: Mon, 28 Sep 2020 13:11:20 +0100 in /lustre/scratch/uccabz1/launch_tmp/launcher_2020-09-28-10-38-36-821674
REM CASTEP 20.1 from code version af48c487+ pr-geom-scf-spinfix Tue Jun 2 15:39:59 2020 +0100
REM Functional PBE for solids (2008) Relativity Koelling-Harmon Dispersion off
REM Cut-off 340.0000 eV Grid scale 1.7500 Gmax 16.5316 1/A FBSC none
REM MP grid 3 3 3 Offset 0.000 0.000 0.000 No. kpts 10 Spacing 0.07
REM Total runtime: 5880.88 s
REM Overall efficiency: 85 %
REM
REM
REM
REM compiler GCC version 4.9.2
REM options -cpp -iprefix /lustre/shared/ucl/apps/gcc/4.9.2/bin/../lib/gcc/x86_64-unknown-linux-gnu/4.9.2/ -mtune=corei7 -march=x86-64 -g -Og
REM COMMAND_LINE
REM seed 131303194 1899738701 -73916509 291061037 -239282799 -94718271 -1850136600 -2134417703 85655262 708516696 1183676617 -395123560
REM
REM Se 3|2.1|7|7|9|40:41:32(qc=5)
REM Ag 3|2.2|7|7|9|40U:50:41:42(qc=5)
REM 
CELL 1.54180    4.88813    7.18348    6.61798   90.00000   97.24563   90.00000
LATT -1
SFAC Se Ag 
Se     1  0.1948807978880 -0.0406100932668 -0.2189316310407 1.0
Se     1  0.3051192021120  0.4593899067332  0.2189316310407 1.0
Se     1 -0.1948807978880  0.0406100932668  0.2189316310407 1.0
Se     1 -0.3051192021120 -0.4593899067332 -0.2189316310407 1.0
Ag     2  0.1902654424445 -0.3497596907820 -0.4537915096715 1.0
Ag     2  0.3097345575555  0.1502403092180  0.4537915096715 1.0
Ag     2 -0.1902654424445  0.3497596907820  0.4537915096715 1.0
Ag     2 -0.3097345575555 -0.1502403092180 -0.4537915096715 1.0
Ag     2 -0.2113995082391 -0.3487685334613  0.1720239785807 1.0
Ag     2 -0.2886004917609  0.1512314665387 -0.1720239785807 1.0
Ag     2  0.2113995082391  0.3487685334613 -0.1720239785807 1.0
Ag     2  0.2886004917609 -0.1512314665387  0.1720239785807 1.0
END
