TITL Ag2Se-P21c-200928-120718-1c2ab5 0.0741 230.866298 -4.61188854E+004 0 0 12 (P21/c) n - 1
REM
REM Run started: Mon, 28 Sep 2020 12:57:18 +0100 in /lustre/scratch/uccabz1/launch_tmp/launcher_2020-09-28-11-07-15-493391
REM CASTEP 20.1 from code version af48c487+ pr-geom-scf-spinfix Tue Jun 2 15:39:59 2020 +0100
REM Functional PBE for solids (2008) Relativity Koelling-Harmon Dispersion off
REM Cut-off 340.0000 eV Grid scale 1.7500 Gmax 16.5316 1/A FBSC none
REM MP grid 3 3 3 Offset 0.000 0.000 0.000 No. kpts 10 Spacing 0.07
REM Total runtime: 3035.73 s
REM Overall efficiency: 84.1429 %
REM
REM
REM
REM compiler GCC version 4.9.2
REM options -cpp -iprefix /lustre/shared/ucl/apps/gcc/4.9.2/bin/../lib/gcc/x86_64-unknown-linux-gnu/4.9.2/ -mtune=corei7 -march=x86-64 -g -Og
REM COMMAND_LINE
REM seed 788539211 -662812466 -756945961 -186321991 1411557573 -2108980732 -1720135120 -1500819027 -1310255097 -2104606302 -1128892908 -195941712
REM
REM Se 3|2.1|7|7|9|40:41:32(qc=5)
REM Ag 3|2.2|7|7|9|40U:50:41:42(qc=5)
REM 
CELL 1.54180    5.15627    6.61476    6.94763   90.00000  103.02840   90.00000
LATT -1
SFAC Se Ag 
Se     1  0.3160584576944 -0.0311587022701 -0.3263663475428 1.0
Se     1 -0.3160584576944  0.4688412977299 -0.1736336524572 1.0
Se     1 -0.3160584576944  0.0311587022701  0.3263663475428 1.0
Se     1  0.3160584576944 -0.4688412977299  0.1736336524572 1.0
Ag     2 -0.2554045854959  0.4157669983196 -0.5394866205771 1.0
Ag     2  0.2554045854959 -0.0842330016804  0.0394866205771 1.0
Ag     2  0.2554045854959 -0.4157669983196  0.5394866205771 1.0
Ag     2 -0.2554045854959  0.0842330016804 -0.0394866205771 1.0
Ag     2  0.1643882251260  0.3032831797036 -0.1662707843571 1.0
Ag     2 -0.1643882251260 -0.1967168202964 -0.3337292156429 1.0
Ag     2 -0.1643882251260 -0.3032831797036  0.1662707843571 1.0
Ag     2  0.1643882251260  0.1967168202964  0.3337292156429 1.0
END
