TITL Ag2Se-P2m-200928-092950-49b557 -0.0664 232.315949 -4.61165497E+004 0 0 12 (Cmmm) n - 1
REM
REM Run started: Mon, 28 Sep 2020 11:00:18 +0100 in /lustre/scratch/uccabz1/launch_tmp/launcher_2020-09-28-08-29-47-493156
REM CASTEP 20.1 from code version af48c487+ pr-geom-scf-spinfix Tue Jun 2 15:39:59 2020 +0100
REM Functional PBE for solids (2008) Relativity Koelling-Harmon Dispersion off
REM Cut-off 340.0000 eV Grid scale 1.7500 Gmax 16.5316 1/A FBSC none
REM MP grid 3 3 2 Offset 0.000 0.000 0.000 No. kpts 6 Spacing 0.07
REM Total runtime: 5468.78 s
REM Overall efficiency: 93.875 %
REM
REM
REM
REM compiler GCC version 4.9.2
REM options -cpp -iprefix /lustre/shared/ucl/apps/gcc/4.9.2/bin/../lib/gcc/x86_64-unknown-linux-gnu/4.9.2/ -mtune=corei7 -march=x86-64 -g -Og
REM COMMAND_LINE
REM seed 1764913137 -948301197 2002007840 447171383 405164585 550953089 -1279333996 1519516861 -1096427492 -1064367452 725137779 -1623683157
REM
REM Se 3|2.1|7|7|9|40:41:32(qc=5)
REM Ag 3|2.2|7|7|9|40U:50:41:42(qc=5)
REM 
CELL 1.54180    4.89112    5.71281    8.31420   90.00000   89.96790   90.00000
LATT -1
SFAC Se Ag 
Se     1 -0.2504476871709 -0.2496673541134  0.2491615679685 1.0
Se     1  0.2504476871709 -0.2496673541134 -0.2491615679685 1.0
Se     1  0.2504476871709  0.2496673541134 -0.2491615679685 1.0
Se     1 -0.2504476871709  0.2496673541134  0.2491615679685 1.0
Ag     2  0.2501487810871  0.2499642894027  0.4177139326703 1.0
Ag     2 -0.2501487810871  0.2499642894027 -0.4177139326703 1.0
Ag     2 -0.2501487810871 -0.2499642894027 -0.4177139326703 1.0
Ag     2  0.2501487810871 -0.2499642894027  0.4177139326703 1.0
Ag     2  0.2493117260825 -0.2500084668717  0.0833845742097 1.0
Ag     2 -0.2493117260825 -0.2500084668717 -0.0833845742097 1.0
Ag     2 -0.2493117260825  0.2500084668717 -0.0833845742097 1.0
Ag     2  0.2493117260825  0.2500084668717  0.0833845742097 1.0
END
