TITL Ag2Se-P2m-200928-133845-ab35cd -0.0360 241.371551 -4.61166409E+004 0 0 12 (P2/m) n - 1
REM
REM Run started: Mon, 28 Sep 2020 15:12:16 +0100 in /lustre/scratch/uccabz1/launch_tmp/launcher_2020-09-28-12-38-43-863818
REM CASTEP 20.1 from code version af48c487+ pr-geom-scf-spinfix Tue Jun 2 15:39:59 2020 +0100
REM Functional PBE for solids (2008) Relativity Koelling-Harmon Dispersion off
REM Cut-off 340.0000 eV Grid scale 1.7500 Gmax 16.5316 1/A FBSC none
REM MP grid 3 3 2 Offset 0.000 0.000 0.000 No. kpts 6 Spacing 0.07
REM Total runtime: 4441.63 s
REM Overall efficiency: 94.7143 %
REM
REM
REM
REM compiler GCC version 4.9.2
REM options -cpp -iprefix /lustre/shared/ucl/apps/gcc/4.9.2/bin/../lib/gcc/x86_64-unknown-linux-gnu/4.9.2/ -mtune=corei7 -march=x86-64 -g -Og
REM COMMAND_LINE
REM seed -1126015319 2002654084 1566005560 -520224017 1495313744 -1410673883 174004145 -1611022858 1637574117 -1918774295 2087244573 -580705742
REM
REM Se 3|2.1|7|7|9|40:41:32(qc=5)
REM Ag 3|2.2|7|7|9|40U:50:41:42(qc=5)
REM 
CELL 1.54180    5.42056    6.05527    7.70397   90.00000  107.34252   90.00000
LATT -1
SFAC Se Ag 
Se     1  0.1210094930646 -0.2501640215712  0.3134954622882 1.0
Se     1 -0.1210094930646 -0.2501640215712 -0.3134954622882 1.0
Se     1 -0.1210094930646  0.2501640215712 -0.3134954622882 1.0
Se     1  0.1210094930646  0.2501640215712  0.3134954622882 1.0
Ag     2  0.3761385337991 -0.2489406913127 -0.3326029929185 1.0
Ag     2 -0.3761385337991 -0.2489406913127  0.3326029929185 1.0
Ag     2 -0.3761385337991  0.2489406913127  0.3326029929185 1.0
Ag     2  0.3761385337991  0.2489406913127 -0.3326029929185 1.0
Ag     2  0.2531554530120 -0.2499169713829  0.0013370318855 1.0
Ag     2 -0.2531554530120 -0.2499169713829 -0.0013370318855 1.0
Ag     2 -0.2531554530120  0.2499169713829 -0.0013370318855 1.0
Ag     2  0.2531554530120  0.2499169713829  0.0013370318855 1.0
END
