TITL Ag2Se-P2m-200928-092912-8977d9 0.0042 241.229631 -4.61166333E+004 0 0 12 (P2/m) n - 1
REM
REM Run started: Mon, 28 Sep 2020 10:50:41 +0100 in /lustre/scratch/uccabz1/launch_tmp/launcher_2020-09-28-08-29-09-785661
REM CASTEP 20.1 from code version af48c487+ pr-geom-scf-spinfix Tue Jun 2 15:39:59 2020 +0100
REM Functional PBE for solids (2008) Relativity Koelling-Harmon Dispersion off
REM Cut-off 340.0000 eV Grid scale 1.7500 Gmax 16.5316 1/A FBSC none
REM MP grid 3 3 2 Offset 0.000 0.000 0.000 No. kpts 6 Spacing 0.07
REM Total runtime: 4938.62 s
REM Overall efficiency: 93.8571 %
REM
REM
REM
REM compiler GCC version 4.9.2
REM options -cpp -iprefix /lustre/shared/ucl/apps/gcc/4.9.2/bin/../lib/gcc/x86_64-unknown-linux-gnu/4.9.2/ -mtune=corei7 -march=x86-64 -g -Og
REM COMMAND_LINE
REM seed 467260968 -74471347 804481750 -56095448 -1848677096 354135655 1205318587 -1299887451 -1514856228 -1187251214 1479804056 301253229
REM
REM Se 3|2.1|7|7|9|40:41:32(qc=5)
REM Ag 3|2.2|7|7|9|40U:50:41:42(qc=5)
REM 
CELL 1.54180    5.41055    6.06052    7.69094   90.00000  106.95512   90.00000
LATT -1
SFAC Se Ag 
Se     1 -0.3841168980317 -0.2504108687948  0.3126402083637 1.0
Se     1  0.3841168980317 -0.2504108687948 -0.3126402083637 1.0
Se     1  0.3841168980317  0.2504108687948 -0.3126402083637 1.0
Se     1 -0.3841168980317  0.2504108687948  0.3126402083637 1.0
Ag     2  0.2457694362560  0.2517524827926 -0.0023182155794 1.0
Ag     2 -0.2457694362560  0.2517524827926  0.0023182155794 1.0
Ag     2 -0.2457694362560 -0.2517524827926  0.0023182155794 1.0
Ag     2  0.2457694362560 -0.2517524827926 -0.0023182155794 1.0
Ag     2 -0.1207291599061 -0.2472527990369 -0.3341128074814 1.0
Ag     2  0.1207291599061 -0.2472527990369  0.3341128074814 1.0
Ag     2  0.1207291599061  0.2472527990369  0.3341128074814 1.0
Ag     2 -0.1207291599061  0.2472527990369 -0.3341128074814 1.0
END
