TITL Ag2Se-P21c-200928-104016-9f43e5 0.0065 231.026281 -4.61190334E+004 0 0 12 (P21/c) n - 1
REM
REM Run started: Mon, 28 Sep 2020 11:57:39 +0100 in /lustre/scratch/uccabz1/launch_tmp/launcher_2020-09-28-09-40-14-520371
REM CASTEP 20.1 from code version af48c487+ pr-geom-scf-spinfix Tue Jun 2 15:39:59 2020 +0100
REM Functional PBE for solids (2008) Relativity Koelling-Harmon Dispersion off
REM Cut-off 340.0000 eV Grid scale 1.7500 Gmax 16.5316 1/A FBSC none
REM MP grid 4 3 2 Offset 0.000 0.000 0.000 No. kpts 8 Spacing 0.07
REM Total runtime: 4687.72 s
REM Overall efficiency: 94.125 %
REM
REM
REM
REM compiler GCC version 4.9.2
REM options -cpp -iprefix /lustre/shared/ucl/apps/gcc/4.9.2/bin/../lib/gcc/x86_64-unknown-linux-gnu/4.9.2/ -mtune=corei7 -march=x86-64 -g -Og
REM COMMAND_LINE
REM seed -244727275 1413211433 -722995432 -1149527326 1254089305 200276893 -361031225 146849243 -616414461 1809358176 -1297832298 -813159822
REM
REM Se 3|2.1|7|7|9|40:41:32(qc=5)
REM Ag 3|2.2|7|7|9|40U:50:41:42(qc=5)
REM 
CELL 1.54180    4.42279    6.89476    7.89887   90.00000  106.43583   90.00000
LATT -1
SFAC Se Ag 
Se     1 -0.3367985430431 -0.2488851880550 -0.1520583138620 1.0
Se     1  0.3367985430431  0.2511148119450 -0.3479416861380 1.0
Se     1  0.3367985430431  0.2488851880550  0.1520583138620 1.0
Se     1 -0.3367985430431 -0.2511148119450  0.3479416861380 1.0
Ag     2  0.2545972014910 -0.1438826624523 -0.4639102222555 1.0
Ag     2 -0.2545972014910  0.3561173375477 -0.0360897777445 1.0
Ag     2 -0.2545972014910  0.1438826624523  0.4639102222555 1.0
Ag     2  0.2545972014910 -0.3561173375477  0.0360897777445 1.0
Ag     2  0.0698719731782  0.0241684985951 -0.1641057045313 1.0
Ag     2 -0.0698719731782  0.5241684985951 -0.3358942954687 1.0
Ag     2 -0.0698719731782 -0.0241684985951  0.1641057045313 1.0
Ag     2  0.0698719731782 -0.5241684985951  0.3358942954687 1.0
END
