TITL Ag2Se-P21c-200928-104705-314801 0.0233 235.589585 -4.61186821E+004 0 0 12 (P21/c) n - 1
REM
REM Run started: Mon, 28 Sep 2020 11:34:31 +0100 in /lustre/scratch/uccabz1/launch_tmp/launcher_2020-09-28-09-47-03-620602
REM CASTEP 20.1 from code version af48c487+ pr-geom-scf-spinfix Tue Jun 2 15:39:59 2020 +0100
REM Functional PBE for solids (2008) Relativity Koelling-Harmon Dispersion off
REM Cut-off 340.0000 eV Grid scale 1.7500 Gmax 16.5316 1/A FBSC none
REM MP grid 4 2 3 Offset 0.000 0.000 0.000 No. kpts 6 Spacing 0.07
REM Total runtime: 3137.76 s
REM Overall efficiency: 95 %
REM
REM
REM
REM compiler GCC version 4.9.2
REM options -cpp -iprefix /lustre/shared/ucl/apps/gcc/4.9.2/bin/../lib/gcc/x86_64-unknown-linux-gnu/4.9.2/ -mtune=corei7 -march=x86-64 -g -Og
REM COMMAND_LINE
REM seed 151649548 1582119117 950082881 -2125266718 -66912699 1014274501 -777134508 1137208130 1197439930 1771556752 834481873 367966567
REM
REM Se 3|2.1|7|7|9|40:41:32(qc=5)
REM Ag 3|2.2|7|7|9|40U:50:41:42(qc=5)
REM 
CELL 1.54180    4.05548    8.65501    7.61632   90.00000  118.20593   90.00000
LATT -1
SFAC Se Ag 
Se     1  0.0268359081540 -0.1359547296809 -0.2640399360206 1.0
Se     1 -0.0268359081540  0.3640452703191 -0.2359600639794 1.0
Se     1 -0.0268359081540  0.1359547296809  0.2640399360206 1.0
Se     1  0.0268359081540 -0.3640452703191  0.2359600639794 1.0
Ag     2 -0.5426886308014  0.4206224765868  0.1596147225893 1.0
Ag     2  0.5426886308014 -0.0793775234132  0.3403852774107 1.0
Ag     2  0.5426886308014 -0.4206224765868 -0.1596147225893 1.0
Ag     2 -0.5426886308014  0.0793775234132 -0.3403852774107 1.0
Ag     2 -0.2346766606181 -0.3816959783416 -0.4915317758211 1.0
Ag     2  0.2346766606181  0.1183040216584 -0.0084682241789 1.0
Ag     2  0.2346766606181  0.3816959783416  0.4915317758211 1.0
Ag     2 -0.2346766606181 -0.1183040216584  0.0084682241789 1.0
END
