TITL Ag2Se-P21c-200928-121433-70eda0 0.0028 235.911749 -4.61185798E+004 0 0 12 (P21/c) n - 1
REM
REM Run started: Mon, 28 Sep 2020 13:11:46 +0100 in /scratch/scratch/uccabz1/launch_tmp/launcher_2020-09-28-11-14-31-641881
REM CASTEP 19.11| from code version Version unavailable
REM Functional PBE for solids (2008) Relativity Koelling-Harmon Dispersion off
REM Cut-off 340.0000 eV Grid scale 1.7500 Gmax 16.5316 1/A FBSC none
REM MP grid 4 3 2 Offset 0.000 0.000 0.000 No. kpts 8 Spacing 0.07
REM Total runtime: 3486.9 s
REM Overall efficiency: 93.8571 %
REM
REM
REM
REM compiler GCC version 4.9.2
REM options -cpp -iprefix /scratch/UCL/applications/gcc/4.9.2/bin/../lib/gcc/x86_64-unknown-linux-gnu/4.9.2/ -mtune=corei7 -march=x86-64 -g -O2
REM COMMAND_LINE
REM seed -1998493294 1242381176 -1692656603 887018912 -324141989 1413158765 -1149802259 -285810953 -2043951445 -454630119 -245388842 -1420500612
REM
REM Se 3|2.1|7|7|9|40:41:32(qc=5)
REM Ag 3|2.2|7|7|9|40U:50:41:42(qc=5)
REM 
CELL 1.54180    4.18248    6.69020    8.65778   90.00000  103.14414   90.00000
LATT -1
SFAC Se Ag 
Se     1  0.3145147033520  0.0489156510123  0.1647861624820 1.0
Se     1 -0.3145147033520 -0.4510843489877  0.3352138375180 1.0
Se     1 -0.3145147033520 -0.0489156510123 -0.1647861624820 1.0
Se     1  0.3145147033520  0.4510843489877 -0.3352138375180 1.0
Ag     2 -0.0883151040559 -0.4337999735378 -0.1616450561181 1.0
Ag     2  0.0883151040559  0.0662000264622 -0.3383549438819 1.0
Ag     2  0.0883151040559  0.4337999735378  0.1616450561181 1.0
Ag     2 -0.0883151040559 -0.0662000264622  0.3383549438819 1.0
Ag     2  0.5304840335030 -0.2921523032111  0.0490988966843 1.0
Ag     2 -0.5304840335030  0.2078476967889  0.4509011033157 1.0
Ag     2 -0.5304840335030  0.2921523032111 -0.0490988966843 1.0
Ag     2  0.5304840335030 -0.2078476967889 -0.4509011033157 1.0
END
