TITL Ag2Se-P21c-200928-111936-0d4da5 0.0033 230.207167 -4.61190457E+004 0 0 12 (P21/c) n - 1
REM
REM Run started: Mon, 28 Sep 2020 13:19:28 +0100 in /lustre/scratch/uccabz1/launch_tmp/launcher_2020-09-28-10-19-34-822620
REM CASTEP 20.1 from code version af48c487+ pr-geom-scf-spinfix Tue Jun 2 15:39:59 2020 +0100
REM Functional PBE for solids (2008) Relativity Koelling-Harmon Dispersion off
REM Cut-off 340.0000 eV Grid scale 1.7500 Gmax 16.5316 1/A FBSC none
REM MP grid 3 2 3 Offset 0.000 0.000 0.000 No. kpts 5 Spacing 0.07
REM Total runtime: 7414.58 s
REM Overall efficiency: 84.2222 %
REM
REM
REM
REM compiler GCC version 4.9.2
REM options -cpp -iprefix /lustre/shared/ucl/apps/gcc/4.9.2/bin/../lib/gcc/x86_64-unknown-linux-gnu/4.9.2/ -mtune=corei7 -march=x86-64 -g -Og
REM COMMAND_LINE
REM seed -1459852156 -2045727807 -187067823 862142938 -826307599 1063703678 2081700470 -819149094 2121728751 -1450195799 -837091503 -578882866
REM
REM Se 3|2.1|7|7|9|40:41:32(qc=5)
REM Ag 3|2.2|7|7|9|40U:50:41:42(qc=5)
REM 
CELL 1.54180    4.90691    7.14230    6.62427   90.00000   97.43361   90.00000
LATT -1
SFAC Se Ag 
Se     1 -0.1958839708029  0.0417515996786 -0.2817452109740 1.0
Se     1 -0.3041160291971 -0.4582484003214  0.2817452109740 1.0
Se     1  0.1958839708029 -0.0417515996786  0.2817452109740 1.0
Se     1  0.3041160291971  0.4582484003214 -0.2817452109740 1.0
Ag     2 -0.2154142182862 -0.3480782920666 -0.3262185256334 1.0
Ag     2 -0.2845857817138  0.1519217079334  0.3262185256334 1.0
Ag     2  0.2154142182862  0.3480782920666  0.3262185256334 1.0
Ag     2  0.2845857817138 -0.1519217079334 -0.3262185256334 1.0
Ag     2  0.1910958773663 -0.3500885248706  0.0456706417506 1.0
Ag     2  0.3089041226337  0.1499114751294 -0.0456706417506 1.0
Ag     2 -0.1910958773663  0.3500885248706 -0.0456706417506 1.0
Ag     2 -0.3089041226337 -0.1499114751294  0.0456706417506 1.0
END
