TITL Ag2Se-P21c-200928-093403-d7f030 0.0261 230.264916 -4.61180823E+004 0 0 12 (Pnma) n - 1
REM
REM Run started: Mon, 28 Sep 2020 10:46:36 +0100 in /lustre/scratch/uccabz1/launch_tmp/launcher_2020-09-28-08-34-01-706611
REM CASTEP 20.1 from code version af48c487+ pr-geom-scf-spinfix Tue Jun 2 15:39:59 2020 +0100
REM Functional PBE for solids (2008) Relativity Koelling-Harmon Dispersion off
REM Cut-off 340.0000 eV Grid scale 1.7500 Gmax 16.5316 1/A FBSC none
REM MP grid 4 3 2 Offset 0.000 0.000 0.000 No. kpts 8 Spacing 0.07
REM Total runtime: 4395.99 s
REM Overall efficiency: 93.4286 %
REM
REM
REM
REM compiler GCC version 4.9.2
REM options -cpp -iprefix /lustre/shared/ucl/apps/gcc/4.9.2/bin/../lib/gcc/x86_64-unknown-linux-gnu/4.9.2/ -mtune=corei7 -march=x86-64 -g -Og
REM COMMAND_LINE
REM seed 2005557801 1623643945 -1578448712 -1120983292 1234545781 2130672539 2090051407 1058813250 -724211099 2140648520 77536486 -585380990
REM
REM Se 3|2.1|7|7|9|40:41:32(qc=5)
REM Ag 3|2.2|7|7|9|40U:50:41:42(qc=5)
REM 
CELL 1.54180    4.69203    6.09780    8.04816   90.00000   90.19374   90.00000
LATT -1
SFAC Se Ag 
Se     1 -0.2559344778005  0.0182873713649  0.2490231201126 1.0
Se     1 -0.2440655221995 -0.4817126286351 -0.2490231201126 1.0
Se     1  0.2559344778005 -0.0182873713649 -0.2490231201126 1.0
Se     1  0.2440655221995  0.4817126286351  0.2490231201126 1.0
Ag     2  0.2540022535587  0.3919414220269 -0.4274777566288 1.0
Ag     2  0.2459977464413 -0.1080585779731  0.4274777566288 1.0
Ag     2 -0.2540022535587 -0.3919414220269  0.4274777566288 1.0
Ag     2 -0.2459977464413  0.1080585779731 -0.4274777566288 1.0
Ag     2  0.2537567135288  0.3954989504917 -0.0755570254879 1.0
Ag     2  0.2462432864712 -0.1045010495083  0.0755570254879 1.0
Ag     2 -0.2537567135288 -0.3954989504917  0.0755570254879 1.0
Ag     2 -0.2462432864712  0.1045010495083 -0.0755570254879 1.0
END
