TITL Ag2Se-P2m-200928-092950-4899d9 -0.0267 242.768523 -4.61166527E+004 0 0 12 (P2/m) n - 1
REM
REM Run started: Mon, 28 Sep 2020 10:40:43 +0100 in /lustre/scratch/uccabz1/launch_tmp/launcher_2020-09-28-08-29-47-072411
REM CASTEP 20.1 from code version af48c487+ pr-geom-scf-spinfix Tue Jun 2 15:39:59 2020 +0100
REM Functional PBE for solids (2008) Relativity Koelling-Harmon Dispersion off
REM Cut-off 340.0000 eV Grid scale 1.7500 Gmax 16.5316 1/A FBSC none
REM MP grid 3 3 2 Offset 0.000 0.000 0.000 No. kpts 6 Spacing 0.07
REM Total runtime: 4304.67 s
REM Overall efficiency: 92 %
REM
REM
REM
REM compiler GCC version 4.9.2
REM options -cpp -iprefix /lustre/shared/ucl/apps/gcc/4.9.2/bin/../lib/gcc/x86_64-unknown-linux-gnu/4.9.2/ -mtune=corei7 -march=x86-64 -g -Og
REM COMMAND_LINE
REM seed -1307145111 -792200518 -575234791 -1429085365 -1436441540 -2075026614 -1281280078 2020878092 -697171857 1453575345 -667656809 -881979504
REM
REM Se 3|2.1|7|7|9|40:41:32(qc=5)
REM Ag 3|2.2|7|7|9|40U:50:41:42(qc=5)
REM 
CELL 1.54180    5.43057    6.08130    7.74174   90.00000  108.27942   90.00000
LATT -1
SFAC Se Ag 
Se     1  0.1298549185955 -0.2494588412535  0.3146116624239 1.0
Se     1 -0.1298549185955 -0.2494588412535 -0.3146116624239 1.0
Se     1 -0.1298549185955  0.2494588412535 -0.3146116624239 1.0
Se     1  0.1298549185955  0.2494588412535  0.3146116624239 1.0
Ag     2  0.3680445599255  0.2517134167907 -0.3288220026179 1.0
Ag     2 -0.3680445599255  0.2517134167907  0.3288220026179 1.0
Ag     2 -0.3680445599255 -0.2517134167907  0.3288220026179 1.0
Ag     2  0.3680445599255 -0.2517134167907 -0.3288220026179 1.0
Ag     2 -0.2526030116453 -0.2493880562662 -0.0011024686662 1.0
Ag     2  0.2526030116453 -0.2493880562662  0.0011024686662 1.0
Ag     2  0.2526030116453  0.2493880562662  0.0011024686662 1.0
Ag     2 -0.2526030116453  0.2493880562662 -0.0011024686662 1.0
END
