TITL 4Ag2SE-200803-155832-45173c -0.0168 223.746434 -4.61185844E+004 0 0 12 (Pbcm) n - 1
REM
REM Run started: Mon, 03 Aug 2020 16:22:36 +0100 in /lustre/scratch/uccabz1/launch_tmp/launcher_2020-08-03-14-58-29-561668
REM CASTEP 20.1 from code version af48c487+ pr-geom-scf-spinfix Tue Jun 2 15:39:59 2020 +0100
REM Functional PBE for solids (2008) Relativity Koelling-Harmon Dispersion off
REM Cut-off 300.0000 eV Grid scale 1.7500 Gmax 15.5288 1/A FBSC none
REM MP grid 3 3 3 Offset 0.000 0.000 0.000 No. kpts 8 Spacing 0.07
REM Total runtime: 1653.82 s
REM Overall efficiency: 90.8333 %
REM
REM 4Ag2SE.cell (6404a18c6b5dc90313b5c56acf317f23)
REM
REM compiler GCC version 4.9.2
REM options -cpp -iprefix /lustre/shared/ucl/apps/gcc/4.9.2/bin/../lib/gcc/x86_64-unknown-linux-gnu/4.9.2/ -mtune=corei7 -march=x86-64 -g -Og
REM COMMAND_LINE
REM seed -1665453434 1551505735 591956839 -1639223331 737486158 -1366726053 -1689381387 -1349792951 1815810159 -637493383 -1750062635 -572858351
REM
REM Se 3|2.1|7|7|9|40:41:32(qc=5)
REM Ag 3|2.2|7|7|9|40U:50:41:42(qc=5)
REM 
CELL 1.54180    6.03742    6.48395    5.71564   90.00000   90.00000   90.00000
LATT -1
SFAC Se Ag 
Se     1 -0.0143047542465 -0.2127720474107  0.0133880359108 1.0
Se     1  0.0143047542465  0.2127720474107 -0.4866119640892 1.0
Se     1  0.4856952457535  0.2127720474107  0.0133880359108 1.0
Se     1 -0.4856952457535 -0.2127720474107 -0.4866119640892 1.0
Ag     2 -0.0285389954726 -0.1935348758325 -0.4898832287843 1.0
Ag     2  0.0285389954726  0.1935348758325  0.0101167712157 1.0
Ag     2 -0.5285389954726  0.1935348758325 -0.4898832287843 1.0
Ag     2  0.5285389954726 -0.1935348758325  0.0101167712157 1.0
Ag     2  0.2474320965894 -0.4763979864086 -0.2419324071264 1.0
Ag     2 -0.2474320965894  0.4763979864086  0.2580675928736 1.0
Ag     2 -0.2525679034106  0.4763979864086 -0.2419324071264 1.0
Ag     2  0.2525679034106 -0.4763979864086  0.2580675928736 1.0
END
