TITL 4Ag2Se_TETRA_OPT-200811-101240-b0d1c1 -0.0003 237.705172 -4.61184902E+004 0 0 12 (P1) n - 1
REM
REM Run started: Tue, 11 Aug 2020 12:33:09 +0100 in /lustre/scratch/uccabz1/launch_tmp/launcher_2020-08-11-09-12-38-742938
REM CASTEP 20.1 from code version af48c487+ pr-geom-scf-spinfix Tue Jun 2 15:39:59 2020 +0100
REM Functional PBE for solids (2008) Relativity Koelling-Harmon Dispersion off
REM Cut-off 300.0000 eV Grid scale 1.7500 Gmax 15.5288 1/A FBSC none
REM MP grid 4 3 2 Offset 0.000 0.000 0.000 No. kpts 12 Spacing 0.07
REM Total runtime: 9232.05 s
REM Overall efficiency: 81.6667 %
REM
REM 4Ag2Se_TETRA_OPT.cell (db6eaae92e6a5f18c152ebab86a92a61)
REM
REM compiler GCC version 4.9.2
REM options -cpp -iprefix /lustre/shared/ucl/apps/gcc/4.9.2/bin/../lib/gcc/x86_64-unknown-linux-gnu/4.9.2/ -mtune=corei7 -march=x86-64 -g -Og
REM COMMAND_LINE
REM seed 1213515648 20687239 1317559383 637619091 255561467 -2038713613 1538551865 -435047647 191048649 -1416837472 -1750413189 -457539320
REM
REM Se 3|2.1|7|7|9|40:41:32(qc=5)
REM Ag 3|2.2|7|7|9|40U:50:41:42(qc=5)
REM 
CELL 1.54180    4.21628    7.07902    8.04618   91.24381   85.88773   97.05135
LATT -1
SFAC Se Ag 
Se     1 -0.0062355837039  0.3536564982692  0.1106394637205 1.0
Se     1  0.3025881510557 -0.1540638108590  0.3689015874296 1.0
Se     1 -0.1950020972469 -0.0946563684884 -0.1121460135639 1.0
Se     1 -0.3588867130480  0.2645690459109 -0.4106098720723 1.0
Ag     2  0.2503405602265 -0.2980655490268  0.0127126856765 1.0
Ag     2  0.1905616129362 -0.4810729168558 -0.4727540388903 1.0
Ag     2  0.4072429913521  0.2498580304431  0.2949876774393 1.0
Ag     2  0.3264714302229 -0.1055668908476 -0.3124632988336 1.0
Ag     2  0.1502442734497  0.2774609775351 -0.1935108353174 1.0
Ag     2 -0.2681535822970 -0.3849568938884  0.2825953003778 1.0
Ag     2 -0.1337532653839 -0.0031244960263  0.2115287093930 1.0
Ag     2 -0.3013534775634 -0.4290065261660 -0.2305948653592 1.0
END
