TITL 4Ag2Se_TETRA_OPT-200811-093026-e61311 -0.0032 233.309412 -4.61184940E+004 0 0 12 (P-1) n - 1
REM
REM Run started: Tue, 11 Aug 2020 10:57:45 +0100 in /lustre/scratch/uccabz1/launch_tmp/launcher_2020-08-11-08-30-24-700790
REM CASTEP 20.1 from code version af48c487+ pr-geom-scf-spinfix Tue Jun 2 15:39:59 2020 +0100
REM Functional PBE for solids (2008) Relativity Koelling-Harmon Dispersion off
REM Cut-off 300.0000 eV Grid scale 1.7500 Gmax 15.5288 1/A FBSC none
REM MP grid 4 2 2 Offset 0.000 0.000 0.000 No. kpts 8 Spacing 0.07
REM Total runtime: 5459.2 s
REM Overall efficiency: 92.6667 %
REM
REM 4Ag2Se_TETRA_OPT.cell (db6eaae92e6a5f18c152ebab86a92a61)
REM
REM compiler GCC version 4.9.2
REM options -cpp -iprefix /lustre/shared/ucl/apps/gcc/4.9.2/bin/../lib/gcc/x86_64-unknown-linux-gnu/4.9.2/ -mtune=corei7 -march=x86-64 -g -Og
REM COMMAND_LINE
REM seed -1682552488 -902579292 -1104292791 1531852353 -1476030684 1314475130 -1701162276 1258986864 422892892 1514926582 -1481782682 -1028113926
REM
REM Se 3|2.1|7|7|9|40:41:32(qc=5)
REM Ag 3|2.2|7|7|9|40U:50:41:42(qc=5)
REM 
CELL 1.54180    4.10498    7.95571    7.50936   93.27110  107.65460   89.14714
LATT -1
SFAC Se Ag 
Se     1  0.3697123864884  0.1407800227027 -0.2292119362314 1.0
Se     1 -0.3697123864884 -0.1407800227027  0.2292119362314 1.0
Se     1 -0.1622179667661 -0.3911050785386 -0.2949146820150 1.0
Se     1  0.1622179667661  0.3911050785386  0.2949146820150 1.0
Ag     2 -0.0606110337275  0.3333356679264 -0.0718196903479 1.0
Ag     2  0.0606110337275 -0.3333356679264  0.0718196903479 1.0
Ag     2  0.2086713127115 -0.2943889855883  0.4642151785378 1.0
Ag     2 -0.2086713127115  0.2943889855883 -0.4642151785378 1.0
Ag     2  0.4254781077494 -0.1909397641598 -0.1498097707735 1.0
Ag     2 -0.4254781077494  0.1909397641598  0.1498097707735 1.0
Ag     2 -0.1977440935329 -0.0567439301036 -0.3769306079917 1.0
Ag     2  0.1977440935329  0.0567439301036  0.3769306079917 1.0
END
