TITL 4Ag2SE-200803-154822-c7f0c0 0.0206 225.836235 -4.61183495E+004 0 0 12 (C2/m) n - 1
REM
REM Run started: Mon, 03 Aug 2020 17:23:37 +0100 in /lustre/scratch/uccabz1/launch_tmp/launcher_2020-08-03-14-48-20-486953
REM CASTEP 20.1 from code version af48c487+ pr-geom-scf-spinfix Tue Jun 2 15:39:59 2020 +0100
REM Functional PBE for solids (2008) Relativity Koelling-Harmon Dispersion off
REM Cut-off 300.0000 eV Grid scale 1.7500 Gmax 15.5288 1/A FBSC none
REM MP grid 4 3 2 Offset 0.000 0.000 0.000 No. kpts 12 Spacing 0.07
REM Total runtime: 5765.14 s
REM Overall efficiency: 77.7273 %
REM
REM 4Ag2SE.cell (6404a18c6b5dc90313b5c56acf317f23)
REM
REM compiler GCC version 4.9.2
REM options -cpp -iprefix /lustre/shared/ucl/apps/gcc/4.9.2/bin/../lib/gcc/x86_64-unknown-linux-gnu/4.9.2/ -mtune=corei7 -march=x86-64 -g -Og
REM COMMAND_LINE
REM seed -1354458455 -1727658134 1412928047 -195989420 407672171 -2138974455 359361903 832317268 -1568085147 861520268 -1976609353 -1121887330
REM
REM Se 3|2.1|7|7|9|40:41:32(qc=5)
REM Ag 3|2.2|7|7|9|40U:50:41:42(qc=5)
REM 
CELL 1.54180    4.04818    7.35427    8.13632   86.04105   75.57521   74.29569
LATT -1
SFAC Se Ag 
Se     1  0.3197690734055  0.1775927657936 -0.3205660576201 1.0
Se     1 -0.3197690734055 -0.1775927657936  0.3205660576201 1.0
Se     1  0.4082521636693 -0.2749857247771 -0.0423104737773 1.0
Se     1 -0.4082521636693  0.2749857247771  0.0423104737773 1.0
Ag     2  0.1575669359216  0.0388141843844  0.1441881026971 1.0
Ag     2 -0.1575669359216 -0.0388141843844 -0.1441881026971 1.0
Ag     2  0.0802103633511  0.5277417713524 -0.1900839746643 1.0
Ag     2 -0.0802103633511 -0.5277417713524  0.1900839746643 1.0
Ag     2  0.2286533360195 -0.3878755344047  0.4303726881828 1.0
Ag     2 -0.2286533360195  0.3878755344047 -0.4303726881828 1.0
Ag     2 -0.5390058830583  0.2192855089753  0.3581231276095 1.0
Ag     2  0.5390058830583 -0.2192855089753 -0.3581231276095 1.0
END
