TITL 4Ag2SE-200803-155115-5f62fb 0.0197 222.972079 -4.61186969E+004 0 0 12 (P21) n - 1
REM
REM Run started: Mon, 03 Aug 2020 16:34:39 +0100 in /lustre/scratch/uccabz1/launch_tmp/launcher_2020-08-03-14-51-14-113129
REM CASTEP 20.1 from code version af48c487+ pr-geom-scf-spinfix Tue Jun 2 15:39:59 2020 +0100
REM Functional PBE for solids (2008) Relativity Koelling-Harmon Dispersion off
REM Cut-off 300.0000 eV Grid scale 1.7500 Gmax 15.5288 1/A FBSC none
REM MP grid 4 3 2 Offset 0.000 0.000 0.000 No. kpts 6 Spacing 0.07
REM Total runtime: 2630.31 s
REM Overall efficiency: 70.3636 %
REM
REM 4Ag2SE.cell (6404a18c6b5dc90313b5c56acf317f23)
REM
REM compiler GCC version 4.9.2
REM options -cpp -iprefix /lustre/shared/ucl/apps/gcc/4.9.2/bin/../lib/gcc/x86_64-unknown-linux-gnu/4.9.2/ -mtune=corei7 -march=x86-64 -g -Og
REM COMMAND_LINE
REM seed -876693536 -104086823 831602968 1353930459 -2097378312 -1061111899 5037657 -1106328081 419115040 -528246837 1818287932 -88784962
REM
REM Se 3|2.1|7|7|9|40:41:32(qc=5)
REM Ag 3|2.2|7|7|9|40U:50:41:42(qc=5)
REM 
CELL 1.54180    4.27109    6.63317    8.03597   90.00000   90.00000  101.65462
LATT -1
SFAC Se Ag 
Se     1  0.3044488019753  0.1118840908350 -0.4649540854247 1.0
Se     1 -0.3044488019753 -0.1118840908350  0.0350459145753 1.0
Se     1 -0.0756419917252 -0.4745651113873  0.4123034898560 1.0
Se     1  0.0756419917252  0.4745651113873 -0.0876965101440 1.0
Ag     2 -0.1848110248239  0.1117308962893 -0.2551508648129 1.0
Ag     2  0.1848110248239 -0.1117308962893  0.2448491351871 1.0
Ag     2 -0.1947542116617  0.1961030107407  0.2384368025932 1.0
Ag     2  0.1947542116617 -0.1961030107407 -0.2615631974068 1.0
Ag     2 -0.4391048803783 -0.5154668008962 -0.3036674344129 1.0
Ag     2  0.4391048803783  0.5154668008962  0.1963325655871 1.0
Ag     2 -0.3439172916993 -0.1662797207094  0.4749725922014 1.0
Ag     2  0.3439172916993  0.1662797207094 -0.0250274077986 1.0
END
