TITL 4Ag2SE-200803-160623-c64212 -0.0641 210.804674 -4.61186302E+004 0 0 12 (Cmcm) n - 1
REM
REM Run started: Mon, 03 Aug 2020 16:21:01 +0100 in /lustre/scratch/uccabz1/launch_tmp/launcher_2020-08-03-15-06-22-077376
REM CASTEP 20.1 from code version af48c487+ pr-geom-scf-spinfix Tue Jun 2 15:39:59 2020 +0100
REM Functional PBE for solids (2008) Relativity Koelling-Harmon Dispersion off
REM Cut-off 300.0000 eV Grid scale 1.7500 Gmax 15.5288 1/A FBSC none
REM MP grid 4 4 2 Offset 0.000 0.000 0.000 No. kpts 4 Spacing 0.07
REM Total runtime: 1042.43 s
REM Overall efficiency: 72.1667 %
REM
REM 4Ag2SE.cell (6404a18c6b5dc90313b5c56acf317f23)
REM
REM compiler GCC version 4.9.2
REM options -cpp -iprefix /lustre/shared/ucl/apps/gcc/4.9.2/bin/../lib/gcc/x86_64-unknown-linux-gnu/4.9.2/ -mtune=corei7 -march=x86-64 -g -Og
REM COMMAND_LINE
REM seed 1825779398 -1266430785 -448500528 674376880 -1547105184 1662226709 179481874 -1358474510 -1120794122 1821811402 -1966062492 1288902141
REM
REM Se 3|2.1|7|7|9|40:41:32(qc=5)
REM Ag 3|2.2|7|7|9|40U:50:41:42(qc=5)
REM 
CELL 1.54180    3.81152    4.20469   13.15372   90.00000   90.00000   90.00000
LATT -1
SFAC Se Ag 
Se     1 -0.2512523326789 -0.1915164292237 -0.3536018246617 1.0
Se     1  0.2512523326789  0.3084835707763  0.3536018246617 1.0
Se     1  0.2512523326789 -0.1915164292237  0.1463981753383 1.0
Se     1 -0.2512523326789  0.3084835707763 -0.1463981753383 1.0
Ag     2  0.2496772939955  0.3093210972497 -0.3248945392319 1.0
Ag     2 -0.2496772939955 -0.1906789027503  0.3248945392319 1.0
Ag     2 -0.2496772939955  0.3093210972497  0.1751054607681 1.0
Ag     2  0.2496772939955 -0.1906789027503 -0.1751054607681 1.0
Ag     2  0.2508357593491 -0.1864551680261  0.4917779830823 1.0
Ag     2 -0.2508357593491  0.3135448319739 -0.4917779830823 1.0
Ag     2 -0.2508357593491 -0.1864551680261 -0.0082220169177 1.0
Ag     2  0.2508357593491  0.3135448319739  0.0082220169177 1.0
END
