TITL 4Ag2Se_TETRA_OPT-200811-110129-e9424c 0.0329 231.121561 -4.61185365E+004 0 0 12 (P1) n - 1
REM
REM Run started: Tue, 11 Aug 2020 12:48:10 +0100 in /lustre/scratch/uccabz1/launch_tmp/launcher_2020-08-11-10-01-27-495193
REM CASTEP 20.1 from code version af48c487+ pr-geom-scf-spinfix Tue Jun 2 15:39:59 2020 +0100
REM Functional PBE for solids (2008) Relativity Koelling-Harmon Dispersion off
REM Cut-off 300.0000 eV Grid scale 1.7500 Gmax 15.5288 1/A FBSC none
REM MP grid 4 2 2 Offset 0.000 0.000 0.000 No. kpts 8 Spacing 0.07
REM Total runtime: 6437.87 s
REM Overall efficiency: 81.4167 %
REM
REM 4Ag2Se_TETRA_OPT.cell (db6eaae92e6a5f18c152ebab86a92a61)
REM
REM compiler GCC version 4.9.2
REM options -cpp -iprefix /lustre/shared/ucl/apps/gcc/4.9.2/bin/../lib/gcc/x86_64-unknown-linux-gnu/4.9.2/ -mtune=corei7 -march=x86-64 -g -Og
REM COMMAND_LINE
REM seed 323574525 -744785920 1431962668 -651588333 -1384940251 -252732461 1884492801 -1349434902 -1896404499 -390386217 665334584 1406972610
REM
REM Se 3|2.1|7|7|9|40:41:32(qc=5)
REM Ag 3|2.2|7|7|9|40U:50:41:42(qc=5)
REM 
CELL 1.54180    4.07107    7.24763    7.90520   86.50148   85.22375   84.73411
LATT -1
SFAC Se Ag 
Se     1  0.2125200586205 -0.0455565307618 -0.2873067554711 1.0
Se     1 -0.2130666427713  0.3999120829160  0.0339368084495 1.0
Se     1  0.3823739729452  0.4274027578891  0.4836654730938 1.0
Se     1 -0.0414723267811 -0.0962231418670  0.2361844494157 1.0
Ag     2 -0.2007585170917  0.1268092262220 -0.5095775638152 1.0
Ag     2 -0.1377387155581  0.4252702162697 -0.3059599227306 1.0
Ag     2  0.3493588389517  0.1766093684099  0.2308274458765 1.0
Ag     2  0.3778822173615  0.2207310977248 -0.1257417374394 1.0
Ag     2 -0.2861528016345 -0.1233617648912 -0.0595444922744 1.0
Ag     2  0.4155803466104 -0.3562457249672  0.1983414747825 1.0
Ag     2  0.2870303630754 -0.3803742727517 -0.1424049943898 1.0
Ag     2 -0.3599980937282 -0.2436418141925 -0.4923544854974 1.0
END
