TITL 4Ag2SE-200803-154818-7b548c 0.0531 214.899786 -4.61186905E+004 0 0 12 (P2/c) n - 1
REM
REM Run started: Mon, 03 Aug 2020 16:04:15 +0100 in /lustre/scratch/uccabz1/launch_tmp/launcher_2020-08-03-14-48-16-391763
REM CASTEP 20.1 from code version af48c487+ pr-geom-scf-spinfix Tue Jun 2 15:39:59 2020 +0100
REM Functional PBE for solids (2008) Relativity Koelling-Harmon Dispersion off
REM Cut-off 300.0000 eV Grid scale 1.7500 Gmax 15.5288 1/A FBSC none
REM MP grid 4 3 2 Offset 0.000 0.000 0.000 No. kpts 6 Spacing 0.07
REM Total runtime: 1033.05 s
REM Overall efficiency: 67.1667 %
REM
REM 4Ag2SE.cell (6404a18c6b5dc90313b5c56acf317f23)
REM
REM compiler GCC version 4.9.2
REM options -cpp -iprefix /lustre/shared/ucl/apps/gcc/4.9.2/bin/../lib/gcc/x86_64-unknown-linux-gnu/4.9.2/ -mtune=corei7 -march=x86-64 -g -Og
REM COMMAND_LINE
REM seed -1801656183 161377428 -1019083535 1975114765 733943530 1901776936 53664330 76909030 589380633 -406906579 -1650811725 -1637472150
REM
REM Se 3|2.1|7|7|9|40:41:32(qc=5)
REM Ag 3|2.2|7|7|9|40U:50:41:42(qc=5)
REM 
CELL 1.54180    4.07429    6.85157    8.16468  109.45936   90.00000   90.00000
LATT -1
SFAC Se Ag 
Se     1 -0.5776643091695  0.0043227265903  0.3541252916406 1.0
Se     1  0.5776643091695  0.0043227265903 -0.1458747083594 1.0
Se     1 -0.4219301988030 -0.3937474806524  0.4908810528111 1.0
Se     1  0.4219301988030 -0.3937474806524 -0.0091189471889 1.0
Ag     2  0.0002725744969  0.3048824159847  0.4232853168300 1.0
Ag     2 -0.0002725744969  0.3048824159847 -0.0767146831700 1.0
Ag     2 -0.0044594550349 -0.3601952172504 -0.2436760526437 1.0
Ag     2  0.0044594550349 -0.3601952172504  0.2563239473563 1.0
Ag     2  0.4984903571608  0.3039868561890  0.1725372025550 1.0
Ag     2 -0.4984903571608  0.3039868561890 -0.3274627974450 1.0
Ag     2  0.0020624962724 -0.0313992008612 -0.4092694111929 1.0
Ag     2 -0.0020624962724 -0.0313992008612  0.0907305888071 1.0
END
