TITL 4Ag2Se_CONSTCUT_NOSYM-200811-025835-bb0acd -0.0129 220.175917 -4.61185061E+004 0 0 12 (P1) n - 1
REM
REM Run started: Tue, 11 Aug 2020 10:58:08 +0100 in /lustre/scratch/uccabz1/launch_tmp/launcher_2020-08-11-01-58-33-713515
REM CASTEP 20.1 from code version af48c487+ pr-geom-scf-spinfix Tue Jun 2 15:39:59 2020 +0100
REM Functional PBE for solids (2008) Relativity Koelling-Harmon Dispersion off
REM Cut-off 300.0000 eV Grid scale 2.0000 Gmax 26.6208 1/A FBSC none
REM MP grid 5 3 3 Offset 0.000 0.000 0.000 No. kpts 23 Spacing 0.05
REM Total runtime: 28964.8 s
REM Overall efficiency: 85.5 %
REM
REM 4Ag2Se_CONSTCUT_NOSYM.cell (04f5f378ecb9f162ba8e0859c4ea5e99)
REM
REM compiler GCC version 4.9.2
REM options -cpp -iprefix /lustre/shared/ucl/apps/gcc/4.9.2/bin/../lib/gcc/x86_64-unknown-linux-gnu/4.9.2/ -mtune=corei7 -march=x86-64 -g -Og
REM COMMAND_LINE
REM seed 183408898 1544954335 -1520867282 -1306634700 95355360 -1159077123 1235573463 -565947767 1115054895 534163190 -1071278260 895800011
REM
REM Se 3|2.1|7|7|9|40:41:32(qc=5)
REM Ag 3|2.2|7|7|9|40U:50:41:42(qc=5)
REM 
CELL 1.54180    4.34230    7.53325    7.07239  106.16386   95.67185   93.47026
LATT -1
SFAC Se Ag 
Se     1  0.4629377366212 -0.4529185246177 -0.3455535645021 1.0
Se     1  0.0925978035360 -0.0834921378548  0.2106760556028 1.0
Se     1 -0.0647194906835  0.0683948356103 -0.2027438991854 1.0
Se     1 -0.1011858806909  0.4371446212874  0.2283825042525 1.0
Ag     2  0.4746777955575  0.3177432615554 -0.1138138512399 1.0
Ag     2 -0.0030361716558 -0.4205368520285 -0.1068735247068 1.0
Ag     2  0.4833235737924  0.0021009484035  0.5261963590789 1.0
Ag     2  0.4320205151592  0.2189962895414  0.2429863077435 1.0
Ag     2 -0.0131021547527 -0.2590106474806 -0.4551465777402 1.0
Ag     2 -0.0119205098677  0.2662297865372 -0.4672404390861 1.0
Ag     2 -0.5311430731583 -0.1124358161410 -0.0791812997212 1.0
Ag     2 -0.5103958438575 -0.3319478648125  0.2142530295040 1.0
END
