TITL 4Ag2Se_CONSTCUT_NOSYM-200810-181230-d80c11 -0.0711 220.781237 -4.61181279E+004 0 0 12 (P1) n - 1
REM
REM Run started: Tue, 11 Aug 2020 00:30:23 +0100 in /lustre/scratch/uccabz1/launch_tmp/launcher_2020-08-10-17-12-28-427248
REM CASTEP 20.1 from code version af48c487+ pr-geom-scf-spinfix Tue Jun 2 15:39:59 2020 +0100
REM Functional PBE for solids (2008) Relativity Koelling-Harmon Dispersion off
REM Cut-off 300.0000 eV Grid scale 2.0000 Gmax 26.6208 1/A FBSC none
REM MP grid 5 4 4 Offset 0.000 0.000 0.000 No. kpts 40 Spacing 0.05
REM Total runtime: 22829.2 s
REM Overall efficiency: 97.5556 %
REM
REM 4Ag2Se_CONSTCUT_NOSYM.cell (04f5f378ecb9f162ba8e0859c4ea5e99)
REM
REM compiler GCC version 4.9.2
REM options -cpp -iprefix /lustre/shared/ucl/apps/gcc/4.9.2/bin/../lib/gcc/x86_64-unknown-linux-gnu/4.9.2/ -mtune=corei7 -march=x86-64 -g -Og
REM COMMAND_LINE
REM seed -1968762932 -880611145 1997508660 -451566685 -1113157718 -373163018 -92485635 1307691548 1882230906 847374131 -1460926652 -376339979
REM
REM Se 3|2.1|7|7|9|40:41:32(qc=5)
REM Ag 3|2.2|7|7|9|40U:50:41:42(qc=5)
REM 
CELL 1.54180    5.08161    6.87160    7.39479   69.92152   65.59052   83.03603
LATT -1
SFAC Se Ag 
Se     1  0.2400552902877 -0.2660376848911  0.2929692656130 1.0
Se     1  0.4549310614112 -0.2121329943907 -0.2893682939989 1.0
Se     1 -0.0342966316693  0.2972927846619  0.0583448708190 1.0
Se     1 -0.2202109829116  0.3355713497556 -0.3735745004559 1.0
Ag     2  0.3624033701484  0.3015093698889 -0.4855936318014 1.0
Ag     2  0.4338740974808  0.0598512149808 -0.0440278781969 1.0
Ag     2 -0.4040156534803 -0.0083285294412  0.2985746287880 1.0
Ag     2 -0.1952862814394 -0.3849822882179  0.2149404924136 1.0
Ag     2  0.4209907539605  0.4336577701315  0.0852212561640 1.0
Ag     2 -0.0402582140968 -0.3657249493546 -0.2601022670948 1.0
Ag     2 -0.0077709293185  0.0477258034004  0.4543896217501 1.0
Ag     2 -0.0067419803727 -0.0176957465237 -0.1354034639998 1.0
END
