TITL 4Ag2Se_CONSTCUT-200811-061610-c0e43e 0.0264 237.268684 -4.61164318E+004 0 0 12 (R3) n - 1
REM
REM Run started: Tue, 11 Aug 2020 09:19:53 +0100 in /lustre/scratch/uccabz1/launch_tmp/launcher_2020-08-11-05-16-08-602088
REM CASTEP 20.1 from code version af48c487+ pr-geom-scf-spinfix Tue Jun 2 15:39:59 2020 +0100
REM Functional PBE for solids (2008) Relativity Koelling-Harmon Dispersion off
REM Cut-off 300.0000 eV Grid scale 2.0000 Gmax 26.6208 1/A FBSC none
REM MP grid 4 4 4 Offset 0.000 0.000 0.000 No. kpts 32 Spacing 0.05
REM Total runtime: 11399.5 s
REM Overall efficiency: 98.2 %
REM
REM 4Ag2Se_CONSTCUT.cell (097ebf1fd09fb02df10c18b5c3809341)
REM
REM compiler GCC version 4.9.2
REM options -cpp -iprefix /lustre/shared/ucl/apps/gcc/4.9.2/bin/../lib/gcc/x86_64-unknown-linux-gnu/4.9.2/ -mtune=corei7 -march=x86-64 -g -Og
REM COMMAND_LINE
REM seed -919753971 1132096500 395121776 853044562 -1279981994 -1941129758 -1436021901 -1874150932 493243782 54314980 -1284192089 -594895394
REM
REM Se 3|2.1|7|7|9|40:41:32(qc=5)
REM Ag 3|2.2|7|7|9|40U:50:41:42(qc=5)
REM 
CELL 1.54180    7.08275    7.08275    6.82268   58.73085   58.73085   60.00000
LATT -1
SFAC Se Ag 
Se     1 -0.2220795842329  0.0514035558306 -0.2818717182569 1.0
Se     1  0.4525478466592 -0.2220795842329 -0.2818717182569 1.0
Se     1  0.0514035558306  0.4525478466592 -0.2818717182569 1.0
Se     1 -0.3902201286063 -0.3902201286063  0.1706604858189 1.0
Ag     2  0.1804862681733 -0.2827590978157  0.1792249802657 1.0
Ag     2 -0.0769520506233  0.1804862681733  0.1792249802657 1.0
Ag     2 -0.2827590978157 -0.0769520506233  0.1792249802657 1.0
Ag     2  0.2039192823211 -0.1162826302932  0.4638065240094 1.0
Ag     2  0.4485569239627  0.2039192823211  0.4638065240094 1.0
Ag     2 -0.1162826302932  0.4485569239627  0.4638065240094 1.0
Ag     2  0.4437508603088  0.4437508603088 -0.3312524809264 1.0
Ag     2  0.2866965543157  0.2866965543157  0.1399104370529 1.0
END
