TITL 4Ag2Se_CONSTCUT-200811-074422-31389c 0.0120 240.211729 -4.61181209E+004 0 0 12 (R3) n - 1
REM
REM Run started: Tue, 11 Aug 2020 09:32:14 +0100 in /lustre/scratch/uccabz1/launch_tmp/launcher_2020-08-11-06-44-20-395624
REM CASTEP 20.1 from code version af48c487+ pr-geom-scf-spinfix Tue Jun 2 15:39:59 2020 +0100
REM Functional PBE for solids (2008) Relativity Koelling-Harmon Dispersion off
REM Cut-off 300.0000 eV Grid scale 2.0000 Gmax 26.6208 1/A FBSC none
REM MP grid 4 4 4 Offset 0.000 0.000 0.000 No. kpts 12 Spacing 0.05
REM Total runtime: 6542.73 s
REM Overall efficiency: 84.8571 %
REM
REM 4Ag2Se_CONSTCUT.cell (097ebf1fd09fb02df10c18b5c3809341)
REM
REM compiler GCC version 4.9.2
REM options -cpp -iprefix /lustre/shared/ucl/apps/gcc/4.9.2/bin/../lib/gcc/x86_64-unknown-linux-gnu/4.9.2/ -mtune=corei7 -march=x86-64 -g -Og
REM COMMAND_LINE
REM seed -1699444225 1760561424 184163668 47478331 1024415085 -1821439496 -2060337067 1806553588 -912143959 1143466185 475912044 -1524880954
REM
REM Se 3|2.1|7|7|9|40:41:32(qc=5)
REM Ag 3|2.2|7|7|9|40U:50:41:42(qc=5)
REM 
CELL 1.54180    6.21691    6.21691    6.21691   89.19075   89.19075   89.19075
LATT -1
SFAC Se Ag 
Se     1 -0.2786451828689  0.2839839742456 -0.2207939473796 1.0
Se     1 -0.2207939473796 -0.2786451828689  0.2839839742456 1.0
Se     1  0.2839839742456 -0.2207939473796 -0.2786451828689 1.0
Se     1  0.2287964695915  0.2287964695915  0.2287964695915 1.0
Ag     2 -0.0139068527229  0.0365244706305  0.5293917083623 1.0
Ag     2  0.5293917083623 -0.0139068527229  0.0365244706305 1.0
Ag     2  0.0365244706305  0.5293917083623 -0.0139068527229 1.0
Ag     2  0.0795956585924  0.4756368105177 -0.4662914177793 1.0
Ag     2 -0.4662914177793  0.0795956585924  0.4756368105177 1.0
Ag     2  0.4756368105177 -0.4662914177793  0.0795956585924 1.0
Ag     2 -0.2844559182210 -0.2844559182210 -0.2844559182210 1.0
Ag     2 -0.0141078729682 -0.0141078729682 -0.0141078729682 1.0
END
