TITL 4Ag2Se_CONSTCUT-200811-085744-5a7027 -0.0145 227.912922 -4.61176751E+004 0 0 12 (P2) n - 1
REM
REM Run started: Tue, 11 Aug 2020 11:53:01 +0100 in /lustre/scratch/uccabz1/launch_tmp/launcher_2020-08-11-07-57-42-401087
REM CASTEP 20.1 from code version af48c487+ pr-geom-scf-spinfix Tue Jun 2 15:39:59 2020 +0100
REM Functional PBE for solids (2008) Relativity Koelling-Harmon Dispersion off
REM Cut-off 300.0000 eV Grid scale 2.0000 Gmax 26.6208 1/A FBSC none
REM MP grid 5 3 4 Offset 0.000 0.000 0.000 No. kpts 20 Spacing 0.05
REM Total runtime: 10633.4 s
REM Overall efficiency: 96.7143 %
REM
REM 4Ag2Se_CONSTCUT.cell (097ebf1fd09fb02df10c18b5c3809341)
REM
REM compiler GCC version 4.9.2
REM options -cpp -iprefix /lustre/shared/ucl/apps/gcc/4.9.2/bin/../lib/gcc/x86_64-unknown-linux-gnu/4.9.2/ -mtune=corei7 -march=x86-64 -g -Og
REM COMMAND_LINE
REM seed -765210826 1836574351 -1695714515 -234601015 -297579291 -381405559 1398998558 -860319317 47120299 808334433 1332329149 -899250876
REM
REM Se 3|2.1|7|7|9|40:41:32(qc=5)
REM Ag 3|2.2|7|7|9|40U:50:41:42(qc=5)
REM 
CELL 1.54180    4.60477    7.57824    6.53122   90.00000   90.14973   90.00000
LATT -1
SFAC Se Ag 
Se     1  0.2479279734922  0.3822290314002  0.1839895473946 1.0
Se     1 -0.2479279734922  0.3822290314002 -0.1839895473946 1.0
Se     1  0.2656731553675 -0.0471753077591 -0.1988500760683 1.0
Se     1 -0.2656731553675 -0.0471753077591  0.1988500760683 1.0
Ag     2 -0.2505177891891 -0.3196666034092 -0.3817910556767 1.0
Ag     2  0.2505177891891 -0.3196666034092  0.3817910556767 1.0
Ag     2  0.2482033343661 -0.3745223196921 -0.1364548090815 1.0
Ag     2 -0.2482033343661 -0.3745223196921  0.1364548090815 1.0
Ag     2 -0.2381384402363  0.0377635820288 -0.3640590525511 1.0
Ag     2  0.2381384402363  0.0377635820288  0.3640590525511 1.0
Ag     2  0.2515218923822  0.3265779174314 -0.3771668324972 1.0
Ag     2 -0.2515218923822  0.3265779174314  0.3771668324972 1.0
END
