TITL 4Ag2Se_CONSTCUT-200811-154511-c69d3f 0.0544 243.796110 -4.61173891E+004 0 0 12 (Cm) n - 1
REM
REM Run started: Tue, 11 Aug 2020 19:57:06 +0100 in /lustre/scratch/uccabz1/launch_tmp/launcher_2020-08-11-14-45-09-333647
REM CASTEP 20.1 from code version af48c487+ pr-geom-scf-spinfix Tue Jun 2 15:39:59 2020 +0100
REM Functional PBE for solids (2008) Relativity Koelling-Harmon Dispersion off
REM Cut-off 300.0000 eV Grid scale 2.0000 Gmax 26.6208 1/A FBSC none
REM MP grid 5 4 3 Offset 0.000 0.000 0.000 No. kpts 30 Spacing 0.05
REM Total runtime: 15262.2 s
REM Overall efficiency: 97.4286 %
REM
REM 4Ag2Se_CONSTCUT.cell (097ebf1fd09fb02df10c18b5c3809341)
REM
REM compiler GCC version 4.9.2
REM options -cpp -iprefix /lustre/shared/ucl/apps/gcc/4.9.2/bin/../lib/gcc/x86_64-unknown-linux-gnu/4.9.2/ -mtune=corei7 -march=x86-64 -g -Og
REM COMMAND_LINE
REM seed -1744486580 1282717244 1547574212 388403761 -1642455950 2011221307 -430766345 940298170 -572295787 -99744420 -1119073203 57442442
REM
REM Se 3|2.1|7|7|9|40:41:32(qc=5)
REM Ag 3|2.2|7|7|9|40U:50:41:42(qc=5)
REM 
CELL 1.54180    4.74601    7.51502    7.80045   61.20320   89.72386   89.42673
LATT -1
SFAC Se Ag 
Se     1  0.0938488709672 -0.3131473695094  0.2482393596997 1.0
Se     1  0.0938488709672 -0.0649079098097 -0.2482395596997 1.0
Se     1 -0.4189965291939  0.4333777016792 -0.2465318889259 1.0
Se     1 -0.4189965291939  0.1868459127533  0.2465316889259 1.0
Ag     2  0.0792652350488  0.3301917328927 -0.3992735428058 1.0
Ag     2  0.0792652350488 -0.0690817099131  0.3992733428058 1.0
Ag     2  0.0762056364769  0.3546836070681 -0.7887216733151 1.0
Ag     2  0.0762056364769 -0.4340379662471  0.7887214733151 1.0
Ag     2 -0.4087711693111 -0.1485403066064  0.2107683329289 1.0
Ag     2 -0.4087711693111  0.0622281263225 -0.2107685329289 1.0
Ag     2 -0.4218739439878 -0.1713113796055  0.5970846405809 1.0
Ag     2 -0.4218739439878  0.4257733609754 -0.5970848405809 1.0
END
