TITL 4Ag2Se_CONSTCUT-200811-063135-51a675 0.0238 213.292077 -4.61182055E+004 0 0 12 (P-1) n - 1
REM
REM Run started: Tue, 11 Aug 2020 13:58:09 +0100 in /lustre/scratch/uccabz1/launch_tmp/launcher_2020-08-11-05-31-32-881501
REM CASTEP 20.1 from code version af48c487+ pr-geom-scf-spinfix Tue Jun 2 15:39:59 2020 +0100
REM Functional PBE for solids (2008) Relativity Koelling-Harmon Dispersion off
REM Cut-off 300.0000 eV Grid scale 2.0000 Gmax 26.6208 1/A FBSC none
REM MP grid 4 3 4 Offset 0.000 0.000 0.000 No. kpts 24 Spacing 0.05
REM Total runtime: 26899.4 s
REM Overall efficiency: 96.6 %
REM
REM 4Ag2Se_CONSTCUT.cell (097ebf1fd09fb02df10c18b5c3809341)
REM
REM compiler GCC version 4.9.2
REM options -cpp -iprefix /lustre/shared/ucl/apps/gcc/4.9.2/bin/../lib/gcc/x86_64-unknown-linux-gnu/4.9.2/ -mtune=corei7 -march=x86-64 -g -Og
REM COMMAND_LINE
REM seed 1010134178 -691161529 1405067760 -846262543 254987781 1443259643 1509667067 1958738242 -562432033 1472037710 -1391302592 -934916463
REM
REM Se 3|2.1|7|7|9|40:41:32(qc=5)
REM Ag 3|2.2|7|7|9|40U:50:41:42(qc=5)
REM 
CELL 1.54180    5.60318    7.23897    5.80866   72.19250   73.45304   91.64212
LATT -1
SFAC Se Ag 
Se     1  0.7025955198054  0.0185769028001 -0.2840246686250 1.0
Se     1 -0.7025955198054 -0.0185769028001  0.2840246686250 1.0
Se     1 -0.1122335792496 -0.3539202821246  0.2105301806218 1.0
Se     1  0.1122335792496  0.3539202821246 -0.2105301806218 1.0
Ag     2  0.4293679809447 -0.3344649661645  0.0847988273972 1.0
Ag     2 -0.4293679809447  0.3344649661645 -0.0847988273972 1.0
Ag     2 -0.1933765692615  0.0314675311513  0.2084418118558 1.0
Ag     2  0.1933765692615 -0.0314675311513 -0.2084418118558 1.0
Ag     2  0.0882430822434  0.3135425137652  0.3166367737199 1.0
Ag     2 -0.0882430822434 -0.3135425137652 -0.3166367737199 1.0
Ag     2  0.4503395718337 -0.3229625430356 -0.4172445860759 1.0
Ag     2 -0.4503395718337  0.3229625430356  0.4172445860759 1.0
END
