TITL 4Ag2Se_CONSTCUT_NOSYM-200811-031446-376591 -0.0218 216.295810 -4.61184251E+004 0 0 12 (P-1) n - 1
REM
REM Run started: Tue, 11 Aug 2020 12:17:19 +0100 in /lustre/scratch/uccabz1/launch_tmp/launcher_2020-08-11-02-14-45-058619
REM CASTEP 20.1 from code version af48c487+ pr-geom-scf-spinfix Tue Jun 2 15:39:59 2020 +0100
REM Functional PBE for solids (2008) Relativity Koelling-Harmon Dispersion off
REM Cut-off 300.0000 eV Grid scale 2.0000 Gmax 26.6208 1/A FBSC none
REM MP grid 4 4 3 Offset 0.000 0.000 0.000 No. kpts 24 Spacing 0.05
REM Total runtime: 32656.2 s
REM Overall efficiency: 97.4167 %
REM
REM 4Ag2Se_CONSTCUT_NOSYM.cell (04f5f378ecb9f162ba8e0859c4ea5e99)
REM
REM compiler GCC version 4.9.2
REM options -cpp -iprefix /lustre/shared/ucl/apps/gcc/4.9.2/bin/../lib/gcc/x86_64-unknown-linux-gnu/4.9.2/ -mtune=corei7 -march=x86-64 -g -Og
REM COMMAND_LINE
REM seed 861124185 1422468693 -2142027524 849332365 -2071483103 -326869707 -591465810 1409994933 927714942 -1398416191 -1051621820 1500059984
REM
REM Se 3|2.1|7|7|9|40:41:32(qc=5)
REM Ag 3|2.2|7|7|9|40U:50:41:42(qc=5)
REM 
CELL 1.54180    5.43923    5.73526    6.99814   89.99177   82.23992   90.66077
LATT -1
SFAC Se Ag 
Se     1 -0.4368506448983  0.0323830584755  0.0807623868637 1.0
Se     1  0.2086854443470 -0.4601149349050 -0.1448048207683 1.0
Se     1 -0.3444339340397 -0.4683072396096  0.4679426538986 1.0
Se     1  0.1151050056031  0.0410123659665 -0.5296656142291 1.0
Ag     2 -0.2162940535297  0.2840568143208 -0.2185992269926 1.0
Ag     2  0.5151164836301 -0.4682625267664  0.1177755247705 1.0
Ag     2  0.1638968364212 -0.4570446397625 -0.5387844216563 1.0
Ag     2 -0.0151987298359  0.2893042456202  0.1551534768861 1.0
Ag     2 -0.3923420793009  0.0306472733025  0.4729898597761 1.0
Ag     2 -0.0150841881045 -0.2105685714947  0.1560052269743 1.0
Ag     2 -0.2124945669165 -0.2163500503099 -0.2194331545616 1.0
Ag     2  0.2546170266241  0.0412591051624 -0.1799876909614 1.0
END
