TITL 4Ag2Se_CONSTCUT-200811-144116-a9bb58 0.0637 218.732228 -4.61181324E+004 0 0 12 (C2/m) n - 1
REM
REM Run started: Tue, 11 Aug 2020 23:23:33 +0100 in /lustre/scratch/uccabz1/launch_tmp/launcher_2020-08-11-13-41-14-624960
REM CASTEP 20.1 from code version af48c487+ pr-geom-scf-spinfix Tue Jun 2 15:39:59 2020 +0100
REM Functional PBE for solids (2008) Relativity Koelling-Harmon Dispersion off
REM Cut-off 300.0000 eV Grid scale 2.0000 Gmax 26.6208 1/A FBSC none
REM MP grid 5 6 2 Offset 0.000 0.000 0.000 No. kpts 30 Spacing 0.05
REM Total runtime: 31465.2 s
REM Overall efficiency: 97.6 %
REM
REM 4Ag2Se_CONSTCUT.cell (097ebf1fd09fb02df10c18b5c3809341)
REM
REM compiler GCC version 4.9.2
REM options -cpp -iprefix /lustre/shared/ucl/apps/gcc/4.9.2/bin/../lib/gcc/x86_64-unknown-linux-gnu/4.9.2/ -mtune=corei7 -march=x86-64 -g -Og
REM COMMAND_LINE
REM seed -1121162663 -115768203 1884188674 478375242 403129317 -1168181300 314934959 -1285114636 322539998 -1750722835 1054715290 1284483810
REM
REM Se 3|2.1|7|7|9|40:41:32(qc=5)
REM Ag 3|2.2|7|7|9|40U:50:41:42(qc=5)
REM 
CELL 1.54180    4.67782    4.60230   12.07896  100.66084   90.00000  120.54430
LATT -1
SFAC Se Ag 
Se     1 -0.0715118891447  0.3493866217106 -0.3353183283166 1.0
Se     1 -0.4208985108553 -0.3493866217106  0.3353183283166 1.0
Se     1  0.3217174692910  0.1358453385821 -0.1361792739786 1.0
Se     1  0.1858721307090 -0.1358453385821  0.1361792739786 1.0
Ag     2 -0.4942202924106 -0.4960301848211  0.0776030673939 1.0
Ag     2  0.0018098924106  0.4960301848211 -0.0776030673939 1.0
Ag     2 -0.1269524084552  0.2385055830896  0.1937157252142 1.0
Ag     2 -0.3654579915448 -0.2385055830896 -0.1937157252142 1.0
Ag     2 -0.4251411461116 -0.3578718922232 -0.4425115847332 1.0
Ag     2 -0.0672692538884  0.3578718922232  0.4425115847332 1.0
Ag     2  0.2491628824516 -0.0092638350968  0.3762772698074 1.0
Ag     2  0.2584267175484  0.0092638350968 -0.3762772698074 1.0
END
