TITL 4Ag2Se_CONSTCUT-200811-084646-cae322 -0.0080 218.742744 -4.61180065E+004 0 0 12 (R3m) n - 1
REM
REM Run started: Tue, 11 Aug 2020 10:08:43 +0100 in /lustre/scratch/uccabz1/launch_tmp/launcher_2020-08-11-07-46-44-386511
REM CASTEP 20.1 from code version af48c487+ pr-geom-scf-spinfix Tue Jun 2 15:39:59 2020 +0100
REM Functional PBE for solids (2008) Relativity Koelling-Harmon Dispersion off
REM Cut-off 300.0000 eV Grid scale 2.0000 Gmax 26.6208 1/A FBSC none
REM MP grid 4 4 4 Offset 0.000 0.000 0.000 No. kpts 12 Spacing 0.05
REM Total runtime: 4988.3 s
REM Overall efficiency: 83.1667 %
REM
REM 4Ag2Se_CONSTCUT.cell (097ebf1fd09fb02df10c18b5c3809341)
REM
REM compiler GCC version 4.9.2
REM options -cpp -iprefix /lustre/shared/ucl/apps/gcc/4.9.2/bin/../lib/gcc/x86_64-unknown-linux-gnu/4.9.2/ -mtune=corei7 -march=x86-64 -g -Og
REM COMMAND_LINE
REM seed 2129155575 1799943912 572050234 361213627 -753218051 -1371689240 -1447287319 -1636060846 -833269971 1174697629 21363814 -1339317608
REM
REM Se 3|2.1|7|7|9|40:41:32(qc=5)
REM Ag 3|2.2|7|7|9|40U:50:41:42(qc=5)
REM 
CELL 1.54180    6.12357    6.12357    6.12357   99.59027   99.59027   99.59027
LATT -1
SFAC Se Ag 
Se     1  0.3556436716279  0.8002908935581  0.3552664008856 1.0
Se     1 -0.6447335991144 -0.6443563283721 -0.1997091064419 1.0
Se     1  0.8002908935581  0.3552664008856  0.3556436716279 1.0
Se     1 -0.0315636578261 -0.0315636578261 -0.0315636578261 1.0
Ag     2  0.4554774767918  0.0197266093189  0.0209295330708 1.0
Ag     2  0.0209295330708 -0.5445225232082  0.0197266093189 1.0
Ag     2  1.0197266093189  0.0209295330708  0.4554774767918 1.0
Ag     2 -0.3169216931849  0.1358821508862 -0.3153845040788 1.0
Ag     2 -0.3153845040788 -0.3169216931849  0.1358821508862 1.0
Ag     2  0.1358821508862 -0.3153845040788 -0.3169216931849 1.0
Ag     2 -0.3341301963393 -0.3341301963393 -0.3341301963393 1.0
Ag     2  0.3404575152898  0.3404575152898  0.3404575152898 1.0
END
