TITL 4Ag2Se_CONSTCUT-200811-151637-31c53c 0.0198 227.385019 -4.61182966E+004 0 0 12 (P21) n - 1
REM
REM Run started: Tue, 11 Aug 2020 21:44:20 +0100 in /lustre/scratch/uccabz1/launch_tmp/launcher_2020-08-11-14-16-35-651171
REM CASTEP 20.1 from code version af48c487+ pr-geom-scf-spinfix Tue Jun 2 15:39:59 2020 +0100
REM Functional PBE for solids (2008) Relativity Koelling-Harmon Dispersion off
REM Cut-off 300.0000 eV Grid scale 2.0000 Gmax 26.6208 1/A FBSC none
REM MP grid 5 4 3 Offset 0.000 0.000 0.000 No. kpts 18 Spacing 0.05
REM Total runtime: 24293.8 s
REM Overall efficiency: 93.5 %
REM
REM 4Ag2Se_CONSTCUT.cell (097ebf1fd09fb02df10c18b5c3809341)
REM
REM compiler GCC version 4.9.2
REM options -cpp -iprefix /lustre/shared/ucl/apps/gcc/4.9.2/bin/../lib/gcc/x86_64-unknown-linux-gnu/4.9.2/ -mtune=corei7 -march=x86-64 -g -Og
REM COMMAND_LINE
REM seed -874163665 1206915937 1754402823 1256314914 857616088 565000784 1909208408 -1504555758 2146890246 1877612962 -843695344 -170582102
REM
REM Se 3|2.1|7|7|9|40:41:32(qc=5)
REM Ag 3|2.2|7|7|9|40U:50:41:42(qc=5)
REM 
CELL 1.54180    4.24314    7.36009    8.40746  120.00093   90.00000   90.00000
LATT -1
SFAC Se Ag 
Se     1  0.2259376406899 -0.4562751844371  0.2405430721100 1.0
Se     1 -0.2740623593101  0.4562751844371 -0.2405430721100 1.0
Se     1  0.4921824953358  0.0599874373033  0.2762651146224 1.0
Se     1 -0.0078175046642 -0.0599874373033 -0.2762651146224 1.0
Ag     2  0.2210846149188  0.1604608291585 -0.4095778370517 1.0
Ag     2 -0.2789153850812 -0.1604608291585  0.4095778370517 1.0
Ag     2 -0.2790323388264  0.4426938597495  0.3814906732776 1.0
Ag     2  0.2209676611736 -0.4426938597495 -0.3814906732776 1.0
Ag     2  0.5378179482632 -0.1403287646412 -0.0879342693743 1.0
Ag     2  0.0378179482632  0.1403287646412  0.0879342693743 1.0
Ag     2  0.0275177396187 -0.2617111230714  0.0675731273666 1.0
Ag     2  0.5275177396187  0.2617111230714 -0.0675731273666 1.0
END
