TITL 4Ag2Se_CONSTCUT-200811-080924-7a4a9d -0.0071 218.242456 -4.61179939E+004 0 0 12 (R3m) n - 1
REM
REM Run started: Tue, 11 Aug 2020 10:43:24 +0100 in /lustre/scratch/uccabz1/launch_tmp/launcher_2020-08-11-07-09-21-798902
REM CASTEP 20.1 from code version af48c487+ pr-geom-scf-spinfix Tue Jun 2 15:39:59 2020 +0100
REM Functional PBE for solids (2008) Relativity Koelling-Harmon Dispersion off
REM Cut-off 300.0000 eV Grid scale 2.0000 Gmax 26.6208 1/A FBSC none
REM MP grid 4 4 4 Offset 0.000 0.000 0.000 No. kpts 12 Spacing 0.05
REM Total runtime: 9303.67 s
REM Overall efficiency: 83.75 %
REM
REM 4Ag2Se_CONSTCUT.cell (097ebf1fd09fb02df10c18b5c3809341)
REM
REM compiler GCC version 4.9.2
REM options -cpp -iprefix /lustre/shared/ucl/apps/gcc/4.9.2/bin/../lib/gcc/x86_64-unknown-linux-gnu/4.9.2/ -mtune=corei7 -march=x86-64 -g -Og
REM COMMAND_LINE
REM seed 692341116 1981784474 -1697409704 1620909541 -133116150 -965132610 -249639453 799693119 711480529 1478396217 -1124328417 -783927210
REM
REM Se 3|2.1|7|7|9|40:41:32(qc=5)
REM Ag 3|2.2|7|7|9|40U:50:41:42(qc=5)
REM 
CELL 1.54180    6.12376    6.12376    6.12376   99.80251   99.80251   99.80251
LATT -1
SFAC Se Ag 
Se     1 -0.3016642400809  0.2537777266257  0.2541596516525 1.0
Se     1  0.2541596516525 -0.3016642400809  0.2537777266257 1.0
Se     1  0.2537777266257  0.2541596516525 -0.3016642400809 1.0
Se     1 -0.1292399410728 -0.1292399410728 -0.1292399410728 1.0
Ag     2  0.0393309707193 -0.4152180037694 -0.4152491027900 1.0
Ag     2 -0.4152491027900  0.0393309707193 -0.4152180037694 1.0
Ag     2 -0.4152180037694 -0.4152491027900  0.0393309707193 1.0
Ag     2 -0.0781659982359 -0.0788582420161  0.3610390874415 1.0
Ag     2  0.3610390874415 -0.0781659982359 -0.0788582420161 1.0
Ag     2 -0.0788582420161  0.3610390874415 -0.0781659982359 1.0
Ag     2  0.2376126334398  0.2376126334398  0.2376126334398 1.0
Ag     2  0.5661763580864  0.5661763580864  0.5661763580864 1.0
END
