TITL 4Ag2Se_CONSTCUT_NOSYM-200810-164100-5a7e0a 0.0241 220.653413 -4.61185008E+004 0 0 12 (P1) n - 1
REM
REM Run started: Mon, 10 Aug 2020 23:32:19 +0100 in /lustre/scratch/uccabz1/launch_tmp/launcher_2020-08-10-15-40-58-512074
REM CASTEP 20.1 from code version af48c487+ pr-geom-scf-spinfix Tue Jun 2 15:39:59 2020 +0100
REM Functional PBE for solids (2008) Relativity Koelling-Harmon Dispersion off
REM Cut-off 300.0000 eV Grid scale 2.0000 Gmax 26.6208 1/A FBSC none
REM MP grid 6 4 3 Offset 0.000 0.000 0.000 No. kpts 36 Spacing 0.05
REM Total runtime: 26951.5 s
REM Overall efficiency: 97.5 %
REM
REM 4Ag2Se_CONSTCUT_NOSYM.cell (04f5f378ecb9f162ba8e0859c4ea5e99)
REM
REM compiler GCC version 4.9.2
REM options -cpp -iprefix /lustre/shared/ucl/apps/gcc/4.9.2/bin/../lib/gcc/x86_64-unknown-linux-gnu/4.9.2/ -mtune=corei7 -march=x86-64 -g -Og
REM COMMAND_LINE
REM seed -495223975 1953422340 1853294037 1686901756 -140083314 -1133204292 1177281074 -204294427 1793187284 1724506173 1906926591 1541927467
REM
REM Se 3|2.1|7|7|9|40:41:32(qc=5)
REM Ag 3|2.2|7|7|9|40U:50:41:42(qc=5)
REM 
CELL 1.54180    4.07566    6.58363    8.42889   90.96952   77.39869   89.19793
LATT -1
SFAC Se Ag 
Se     1  0.2170288130101  0.0203057541779 -0.3288211078123 1.0
Se     1 -0.3960534015167 -0.4650873925304  0.0133804628346 1.0
Se     1  0.3707483404362  0.0894996589692  0.2123317397494 1.0
Se     1 -0.2182293969967 -0.3909957720857 -0.4636809989849 1.0
Ag     2 -0.1986473268054  0.0154537580790  0.4337672459791 1.0
Ag     2 -0.0046679831329 -0.1927010619477  0.1119939503885 1.0
Ag     2 -0.3093506867100  0.2895691494888 -0.2892147134897 1.0
Ag     2 -0.1007988737728  0.3925226031405  0.2709333980469 1.0
Ag     2 -0.3897835340930 -0.0847724056020 -0.1156315038206 1.0
Ag     2  0.0790544164675  0.2230172718193 -0.0441615243265 1.0
Ag     2  0.1735106767430 -0.3857258386274 -0.2218502284947 1.0
Ag     2  0.3709084563706 -0.3012953248816  0.3426854799303 1.0
END
