TITL 4Ag2Se_CONSTCUT-200811-064845-e5c26d 0.0041 235.896148 -4.61177982E+004 0 0 12 (R3) n - 1
REM
REM Run started: Tue, 11 Aug 2020 08:31:41 +0100 in /lustre/scratch/uccabz1/launch_tmp/launcher_2020-08-11-05-48-43-527375
REM CASTEP 20.1 from code version af48c487+ pr-geom-scf-spinfix Tue Jun 2 15:39:59 2020 +0100
REM Functional PBE for solids (2008) Relativity Koelling-Harmon Dispersion off
REM Cut-off 300.0000 eV Grid scale 2.0000 Gmax 26.6208 1/A FBSC none
REM MP grid 4 4 4 Offset 0.000 0.000 0.000 No. kpts 12 Spacing 0.05
REM Total runtime: 6254.85 s
REM Overall efficiency: 81.7143 %
REM
REM 4Ag2Se_CONSTCUT.cell (097ebf1fd09fb02df10c18b5c3809341)
REM
REM compiler GCC version 4.9.2
REM options -cpp -iprefix /lustre/shared/ucl/apps/gcc/4.9.2/bin/../lib/gcc/x86_64-unknown-linux-gnu/4.9.2/ -mtune=corei7 -march=x86-64 -g -Og
REM COMMAND_LINE
REM seed 1060543440 808898158 -441565580 441248864 727743600 2123794612 -393766296 886835488 -1859773813 -1782826952 -1076218308 1201214391
REM
REM Se 3|2.1|7|7|9|40:41:32(qc=5)
REM Ag 3|2.2|7|7|9|40U:50:41:42(qc=5)
REM 
CELL 1.54180    6.26918    6.26918    6.26918   79.77124   79.77124   79.77124
LATT -1
SFAC Se Ag 
Se     1  0.1176137321700 -0.4232956068804  0.1796894922016 1.0
Se     1  0.1796894922016  0.1176137321700 -0.4232956068804 1.0
Se     1 -0.4232956068804  0.1796894922016  0.1176137321700 1.0
Se     1 -0.2478765535964 -0.2478765535964 -0.2478765535964 1.0
Ag     2 -0.1300003625999  0.1424813333503  0.3588263365585 1.0
Ag     2  0.3588263365585 -0.1300003625999  0.1424813333503 1.0
Ag     2  0.1424813333503  0.3588263365585 -0.1300003625999 1.0
Ag     2 -0.2778227537829 -0.2704924183783  0.3524293040186 1.0
Ag     2  0.3524293040186 -0.2778227537829 -0.2704924183783 1.0
Ag     2 -0.2704924183783  0.3524293040186 -0.2778227537829 1.0
Ag     2  0.4293725855059  0.4293725855059  0.4293725855059 1.0
Ag     2 -0.0365873885670 -0.0365873885670 -0.0365873885670 1.0
END
