TITL 4Ag2Se_CONSTCUT-200811-144715-440917 0.0020 235.127706 -4.61184521E+004 0 0 12 (Pc) n - 1
REM
REM Run started: Tue, 11 Aug 2020 23:40:40 +0100 in /lustre/scratch/uccabz1/launch_tmp/launcher_2020-08-11-13-47-13-614222
REM CASTEP 20.1 from code version af48c487+ pr-geom-scf-spinfix Tue Jun 2 15:39:59 2020 +0100
REM Functional PBE for solids (2008) Relativity Koelling-Harmon Dispersion off
REM Cut-off 300.0000 eV Grid scale 2.0000 Gmax 26.6208 1/A FBSC none
REM MP grid 6 3 3 Offset 0.000 0.000 0.000 No. kpts 18 Spacing 0.05
REM Total runtime: 32124.5 s
REM Overall efficiency: 97.5455 %
REM
REM 4Ag2Se_CONSTCUT.cell (097ebf1fd09fb02df10c18b5c3809341)
REM
REM compiler GCC version 4.9.2
REM options -cpp -iprefix /lustre/shared/ucl/apps/gcc/4.9.2/bin/../lib/gcc/x86_64-unknown-linux-gnu/4.9.2/ -mtune=corei7 -march=x86-64 -g -Og
REM COMMAND_LINE
REM seed -848271964 452644685 -1650455994 -1517514782 -1400077484 1900361772 -638204205 -2095812236 263354953 531404477 460313330 1044041422
REM
REM Se 3|2.1|7|7|9|40:41:32(qc=5)
REM Ag 3|2.2|7|7|9|40U:50:41:42(qc=5)
REM 
CELL 1.54180    3.98394    8.19824    8.20263   90.00000   90.00000  118.64079
LATT -1
SFAC Se Ag 
Se     1  0.1741553077308 -0.2206976506520  0.4175516142627 1.0
Se     1  0.1741553077308  0.2793023493480 -0.4175516142627 1.0
Se     1 -0.4513163690172  0.1674528183253  0.1196583697134 1.0
Se     1 -0.4513163690172 -0.3325471816747 -0.1196583697134 1.0
Ag     2 -0.0619412758075 -0.4419190674386 -0.3283143168505 1.0
Ag     2 -0.0619412758075  0.0580809325614  0.3283143168505 1.0
Ag     2 -0.1163026225274 -0.0036681938351 -0.0173772807979 1.0
Ag     2 -0.1163026225274  0.4963318061649  0.0173772807979 1.0
Ag     2 -0.4202981158379 -0.3186714521760  0.2124451589750 1.0
Ag     2 -0.4202981158379  0.1813285478240 -0.2124451589750 1.0
Ag     2 -0.1716451245408 -0.0820273542236 -0.3536882037396 1.0
Ag     2 -0.1716451245408  0.4179726457764  0.3536882037396 1.0
END
