TITL 4Ag2Se_CONSTCUT-200811-085558-83664e 0.0144 236.946351 -4.61180102E+004 0 0 12 (P21) n - 1
REM
REM Run started: Tue, 11 Aug 2020 18:52:20 +0100 in /lustre/scratch/uccabz1/launch_tmp/launcher_2020-08-11-07-55-56-827811
REM CASTEP 20.1 from code version af48c487+ pr-geom-scf-spinfix Tue Jun 2 15:39:59 2020 +0100
REM Functional PBE for solids (2008) Relativity Koelling-Harmon Dispersion off
REM Cut-off 300.0000 eV Grid scale 2.0000 Gmax 26.6208 1/A FBSC none
REM MP grid 6 3 3 Offset 0.000 0.000 0.000 No. kpts 18 Spacing 0.05
REM Total runtime: 39428.6 s
REM Overall efficiency: 98.25 %
REM
REM 4Ag2Se_CONSTCUT.cell (097ebf1fd09fb02df10c18b5c3809341)
REM
REM compiler GCC version 4.9.2
REM options -cpp -iprefix /lustre/shared/ucl/apps/gcc/4.9.2/bin/../lib/gcc/x86_64-unknown-linux-gnu/4.9.2/ -mtune=corei7 -march=x86-64 -g -Og
REM COMMAND_LINE
REM seed -1812780264 -2086221970 392569069 -1845844861 77776378 999978284 -1345026193 1862621363 1911785244 1681762211 969801960 1697701852
REM
REM Se 3|2.1|7|7|9|40:41:32(qc=5)
REM Ag 3|2.2|7|7|9|40U:50:41:42(qc=5)
REM 
CELL 1.54180    4.11625    7.20949    8.44918   90.00000  109.09225   90.00000
LATT -1
SFAC Se Ag 
Se     1  0.3135529542526 -0.0504293703848 -0.4151852971092 1.0
Se     1 -0.3135529542526  0.4495706296152  0.4151852971092 1.0
Se     1 -0.2945738700572 -0.3060675686716  0.0193932831107 1.0
Se     1  0.2945738700572  0.1939324313284 -0.0193932831107 1.0
Ag     2  0.0081549665869  0.2523318300673 -0.3404684250714 1.0
Ag     2 -0.0081549665869 -0.2476681699327  0.3404684250714 1.0
Ag     2  0.0531316809257  0.3982095183975  0.1992454454399 1.0
Ag     2 -0.0531316809257 -0.1017904816025 -0.1992454454399 1.0
Ag     2  0.1173007937622 -0.4656364165743 -0.1108876476675 1.0
Ag     2 -0.1173007937622  0.0343635834257  0.1108876476675 1.0
Ag     2  0.5461873594091  0.0772286071659  0.3504786773838 1.0
Ag     2 -0.5461873594091 -0.4227713928341 -0.3504786773838 1.0
END
