TITL 4Ag2Se_CONSTCUT-200811-143844-151165 -0.0285 212.849383 -4.61184496E+004 0 0 12 (Pnma) n - 1
REM
REM Run started: Tue, 11 Aug 2020 18:29:26 +0100 in /lustre/scratch/uccabz1/launch_tmp/launcher_2020-08-11-13-38-43-116916
REM CASTEP 20.1 from code version af48c487+ pr-geom-scf-spinfix Tue Jun 2 15:39:59 2020 +0100
REM Functional PBE for solids (2008) Relativity Koelling-Harmon Dispersion off
REM Cut-off 300.0000 eV Grid scale 2.0000 Gmax 26.6208 1/A FBSC none
REM MP grid 5 4 3 Offset 0.000 0.000 0.000 No. kpts 20 Spacing 0.05
REM Total runtime: 14050.1 s
REM Overall efficiency: 97.25 %
REM
REM 4Ag2Se_CONSTCUT.cell (097ebf1fd09fb02df10c18b5c3809341)
REM
REM compiler GCC version 4.9.2
REM options -cpp -iprefix /lustre/shared/ucl/apps/gcc/4.9.2/bin/../lib/gcc/x86_64-unknown-linux-gnu/4.9.2/ -mtune=corei7 -march=x86-64 -g -Og
REM COMMAND_LINE
REM seed -1426500468 440870303 -115515980 -2014765987 584508387 -1391800813 651277687 1688540392 947677266 1967620557 -264162521 2033404463
REM
REM Se 3|2.1|7|7|9|40:41:32(qc=5)
REM Ag 3|2.2|7|7|9|40U:50:41:42(qc=5)
REM 
CELL 1.54180    4.09072    6.16451    8.44061   90.00000   90.00000   90.06649
LATT -1
SFAC Se Ag 
Se     1  0.0653648752893  0.4823320227098 -0.1477481595979 1.0
Se     1  0.0653648752893 -0.0176679772902  0.1477481595979 1.0
Se     1 -0.4341449642094  0.1177607360624 -0.3527605885597 1.0
Se     1 -0.4341449642094 -0.3822392639376  0.3527605885597 1.0
Ag     2 -0.4345269445399  0.1686750356122  0.3243251054498 1.0
Ag     2 -0.4345269445399 -0.3313249643878 -0.3243251054498 1.0
Ag     2  0.0649366776397 -0.0666922187477 -0.1744831712215 1.0
Ag     2  0.0649366776397  0.4333077812523  0.1744831712215 1.0
Ag     2 -0.4365402355611 -0.2988049256284  0.0182509854921 1.0
Ag     2 -0.4365402355611  0.2011950743716 -0.0182509854921 1.0
Ag     2  0.0649065913816  0.4022010499918 -0.4825363989272 1.0
Ag     2  0.0649065913816 -0.0977989500082  0.4825363989272 1.0
END
