TITL 4Ag2Se_CONSTCUT_NOSYM-200810-192107-340173 -0.0455 225.945359 -4.61184240E+004 0 0 12 (P1) n - 1
REM
REM Run started: Tue, 11 Aug 2020 01:45:34 +0100 in /lustre/scratch/uccabz1/launch_tmp/launcher_2020-08-10-18-21-05-487860
REM CASTEP 20.1 from code version af48c487+ pr-geom-scf-spinfix Tue Jun 2 15:39:59 2020 +0100
REM Functional PBE for solids (2008) Relativity Koelling-Harmon Dispersion off
REM Cut-off 300.0000 eV Grid scale 2.0000 Gmax 26.6208 1/A FBSC none
REM MP grid 5 3 3 Offset 0.000 0.000 0.000 No. kpts 23 Spacing 0.05
REM Total runtime: 23176.8 s
REM Overall efficiency: 82.5455 %
REM
REM 4Ag2Se_CONSTCUT_NOSYM.cell (04f5f378ecb9f162ba8e0859c4ea5e99)
REM
REM compiler GCC version 4.9.2
REM options -cpp -iprefix /lustre/shared/ucl/apps/gcc/4.9.2/bin/../lib/gcc/x86_64-unknown-linux-gnu/4.9.2/ -mtune=corei7 -march=x86-64 -g -Og
REM COMMAND_LINE
REM seed 1251707578 -268232532 1680729452 147200932 335448562 1330123071 1161530602 -783333433 -1627456532 224582964 -1011192837 1202947324
REM
REM Se 3|2.1|7|7|9|40:41:32(qc=5)
REM Ag 3|2.2|7|7|9|40U:50:41:42(qc=5)
REM 
CELL 1.54180    4.24235    7.17489    7.58715   99.78939   96.74946   90.09978
LATT -1
SFAC Se Ag 
Se     1  0.2197691731336  0.1113643947513  0.4225947508353 1.0
Se     1  0.4826916482006 -0.3589485543734  0.3582189374489 1.0
Se     1 -0.3604820797759 -0.0133972485229 -0.1231080038723 1.0
Se     1  0.1715347059256  0.4092743375719 -0.1402808179028 1.0
Ag     2 -0.2825782773190  0.2184216632768 -0.3570822753940 1.0
Ag     2 -0.0419093377653  0.4311935287625  0.4109597262981 1.0
Ag     2  0.1456863622021 -0.2110964663635 -0.0458382318528 1.0
Ag     2  0.2408785487795  0.2015303273993  0.1087545844753 1.0
Ag     2  0.5741297747562 -0.3857355581690 -0.2918878405959 1.0
Ag     2  0.0092263139325 -0.1654706544542 -0.4249011740206 1.0
Ag     2 -0.2556057710594 -0.4828238775710  0.0678801030513 1.0
Ag     2 -0.3044061610103 -0.0708294923079  0.2181681415295 1.0
END
