TITL 4Ag2Se_CONSTCUT-200811-144038-8341ae -0.0014 226.467582 -4.61185280E+004 0 0 12 (P-43m) n - 1
REM
REM Run started: Tue, 11 Aug 2020 16:34:28 +0100 in /lustre/scratch/uccabz1/launch_tmp/launcher_2020-08-11-13-40-35-529549
REM CASTEP 20.1 from code version af48c487+ pr-geom-scf-spinfix Tue Jun 2 15:39:59 2020 +0100
REM Functional PBE for solids (2008) Relativity Koelling-Harmon Dispersion off
REM Cut-off 300.0000 eV Grid scale 2.0000 Gmax 26.6208 1/A FBSC none
REM MP grid 4 4 4 Offset 0.000 0.000 0.000 No. kpts 12 Spacing 0.05
REM Total runtime: 6906.66 s
REM Overall efficiency: 85.1429 %
REM
REM 4Ag2Se_CONSTCUT.cell (097ebf1fd09fb02df10c18b5c3809341)
REM
REM compiler GCC version 4.9.2
REM options -cpp -iprefix /lustre/shared/ucl/apps/gcc/4.9.2/bin/../lib/gcc/x86_64-unknown-linux-gnu/4.9.2/ -mtune=corei7 -march=x86-64 -g -Og
REM COMMAND_LINE
REM seed -1400399259 1429977632 -270128216 -1261328351 -678731980 393980232 -174446074 538945148 -1210194752 -1686838396 -1335399094 -1855191009
REM
REM Se 3|2.1|7|7|9|40:41:32(qc=5)
REM Ag 3|2.2|7|7|9|40U:50:41:42(qc=5)
REM 
CELL 1.54180    6.09540    6.09540    6.09540   90.08496   90.08496   90.08496
LATT -1
SFAC Se Ag 
Se     1 -0.1473152678985  0.3908267550744  0.3895234117302 1.0
Se     1  0.3895234117302 -0.1473152678985  0.3908267550744 1.0
Se     1  0.3908267550744  0.3895234117302 -0.1473152678985 1.0
Se     1 -0.1474597543320 -0.1474597543320 -0.1474597543320 1.0
Ag     2 -0.3785396768493  0.1211827618765  0.1224931981167 1.0
Ag     2  0.1224931981167 -0.3785396768493  0.1211827618765 1.0
Ag     2  0.1211827618765  0.1224931981167 -0.3785396768493 1.0
Ag     2 -0.1662966297558 -0.1676320146488  0.4095119252234 1.0
Ag     2  0.4095119252234 -0.1662966297558 -0.1676320146488 1.0
Ag     2 -0.1676320146488  0.4095119252234 -0.1662966297558 1.0
Ag     2  0.4099544985179  0.4099544985179  0.4099544985179 1.0
Ag     2  0.1215830929452  0.1215830929452  0.1215830929452 1.0
END
