TITL 4Ag2Se_CONSTCUT_NOSYM-200810-191538-3508dd -0.0118 214.617054 -4.61180650E+004 0 0 12 (P1) n - 1
REM
REM Run started: Tue, 11 Aug 2020 00:32:38 +0100 in /lustre/scratch/uccabz1/launch_tmp/launcher_2020-08-10-18-15-37-023579
REM CASTEP 20.1 from code version af48c487+ pr-geom-scf-spinfix Tue Jun 2 15:39:59 2020 +0100
REM Functional PBE for solids (2008) Relativity Koelling-Harmon Dispersion off
REM Cut-off 300.0000 eV Grid scale 2.0000 Gmax 26.6208 1/A FBSC none
REM MP grid 6 4 3 Offset 0.000 0.000 0.000 No. kpts 36 Spacing 0.05
REM Total runtime: 19162.6 s
REM Overall efficiency: 96.6667 %
REM
REM 4Ag2Se_CONSTCUT_NOSYM.cell (04f5f378ecb9f162ba8e0859c4ea5e99)
REM
REM compiler GCC version 4.9.2
REM options -cpp -iprefix /lustre/shared/ucl/apps/gcc/4.9.2/bin/../lib/gcc/x86_64-unknown-linux-gnu/4.9.2/ -mtune=corei7 -march=x86-64 -g -Og
REM COMMAND_LINE
REM seed 1436787804 1685067825 -1946503001 1422781251 -1898648898 1283758479 -457973024 1465443235 1338354473 869804669 -116317230 765946880
REM
REM Se 3|2.1|7|7|9|40:41:32(qc=5)
REM Ag 3|2.2|7|7|9|40U:50:41:42(qc=5)
REM 
CELL 1.54180    4.12294    6.58309    8.50206   75.70659   78.05212   76.40712
LATT -1
SFAC Se Ag 
Se     1  0.0064381320473 -0.2694372952489 -0.4884270961844 1.0
Se     1 -0.2734068452903  0.5330220143529  0.0159131153272 1.0
Se     1  0.0301942785195 -0.0834515630152  0.0499152052840 1.0
Se     1 -0.3925019960350  0.0763152096943 -0.2727543814378 1.0
Ag     2 -0.5116101424313 -0.1622586079432  0.2602253464093 1.0
Ag     2  0.2096725532268  0.1119000805908 -0.4936870389726 1.0
Ag     2  0.1614813245318  0.5011269842481  0.2548478221219 1.0
Ag     2 -0.2022694158242  0.1762900817345  0.2697333266602 1.0
Ag     2  0.3928379800155  0.2289453551709  0.0136250303087 1.0
Ag     2 -0.0034947819035  0.3656374381857 -0.2429179019346 1.0
Ag     2  0.3297768687060 -0.2978210230043 -0.2268610728398 1.0
Ag     2 -0.4130181555626 -0.5581476747658  0.5030204452578 1.0
END
