TITL 4Ag2Se_CONSTCUT_NOSYM-200810-195614-d11ba4 0.0770 214.712371 -4.61182971E+004 0 0 12 (P1) n - 1
REM
REM Run started: Tue, 11 Aug 2020 05:31:00 +0100 in /lustre/scratch/uccabz1/launch_tmp/launcher_2020-08-10-18-56-12-302113
REM CASTEP 20.1 from code version af48c487+ pr-geom-scf-spinfix Tue Jun 2 15:39:59 2020 +0100
REM Functional PBE for solids (2008) Relativity Koelling-Harmon Dispersion off
REM Cut-off 300.0000 eV Grid scale 2.0000 Gmax 26.6208 1/A FBSC none
REM MP grid 6 3 3 Offset 0.000 0.000 0.000 No. kpts 27 Spacing 0.05
REM Total runtime: 39179.6 s
REM Overall efficiency: 90.5833 %
REM
REM 4Ag2Se_CONSTCUT_NOSYM.cell (04f5f378ecb9f162ba8e0859c4ea5e99)
REM
REM compiler GCC version 4.9.2
REM options -cpp -iprefix /lustre/shared/ucl/apps/gcc/4.9.2/bin/../lib/gcc/x86_64-unknown-linux-gnu/4.9.2/ -mtune=corei7 -march=x86-64 -g -Og
REM COMMAND_LINE
REM seed 1765601669 718504151 1628535728 -466566679 -1224344423 1418445858 266952347 1024006531 -1118759608 456191593 -758317850 -1345163897
REM
REM Se 3|2.1|7|7|9|40:41:32(qc=5)
REM Ag 3|2.2|7|7|9|40U:50:41:42(qc=5)
REM 
CELL 1.54180    4.16957    7.50347    7.77082  110.04286  109.05164   78.21163
LATT -1
SFAC Se Ag 
Se     1  0.1381109986226 -0.0337599174185  0.3801301782661 1.0
Se     1  0.5199096336427 -0.4482742376194 -0.3934411716138 1.0
Se     1 -0.2501364191809  0.3350074442826  0.0142084089143 1.0
Se     1  0.0381497966837 -0.1298845478967 -0.0841899159447 1.0
Ag     2 -0.3229325591530 -0.2757480942648  0.0826440493636 1.0
Ag     2 -0.0102301122916  0.3542275645114  0.3981621428238 1.0
Ag     2  0.3748904596596  0.0294805783048 -0.2346420637595 1.0
Ag     2 -0.3023491018534  0.1851696644709 -0.4127221708809 1.0
Ag     2  0.1442667855564 -0.5271468985584 -0.1662661710547 1.0
Ag     2  0.4482696901083  0.1276602569174  0.1679810551167 1.0
Ag     2  0.3255329466056 -0.4547010682083  0.2405507965554 1.0
Ag     2 -0.1573374184001 -0.2208849445211  0.5165595622135 1.0
END
