TITL 4Ag2Se_CONSTCUT-200811-144037-7e657b -0.0114 248.149499 -4.61158773E+004 0 0 12 (P4/m) n - 1
REM
REM Run started: Tue, 11 Aug 2020 18:01:06 +0100 in /lustre/scratch/uccabz1/launch_tmp/launcher_2020-08-11-13-40-35-529734
REM CASTEP 20.1 from code version af48c487+ pr-geom-scf-spinfix Tue Jun 2 15:39:59 2020 +0100
REM Functional PBE for solids (2008) Relativity Koelling-Harmon Dispersion off
REM Cut-off 300.0000 eV Grid scale 2.0000 Gmax 26.6208 1/A FBSC none
REM MP grid 6 3 3 Offset 0.000 0.000 0.000 No. kpts 9 Spacing 0.05
REM Total runtime: 12126.6 s
REM Overall efficiency: 96.2857 %
REM
REM 4Ag2Se_CONSTCUT.cell (097ebf1fd09fb02df10c18b5c3809341)
REM
REM compiler GCC version 4.9.2
REM options -cpp -iprefix /lustre/shared/ucl/apps/gcc/4.9.2/bin/../lib/gcc/x86_64-unknown-linux-gnu/4.9.2/ -mtune=corei7 -march=x86-64 -g -Og
REM COMMAND_LINE
REM seed 422458481 -1939847340 9404433 -972335601 -1352665832 -621559820 -170656386 -73377204 -481726612 -940797199 -1465349869 -2092418194
REM
REM Se 3|2.1|7|7|9|40:41:32(qc=5)
REM Ag 3|2.2|7|7|9|40U:50:41:42(qc=5)
REM 
CELL 1.54180    3.61066    8.29017    8.29017   90.00000   90.00000   90.00000
LATT -1
SFAC Se Ag 
Se     1 -0.0156151000000  0.3749820840744  0.1909384740545 1.0
Se     1 -0.0156151000000 -0.3749820840744 -0.1909384740545 1.0
Se     1 -0.0156151000000 -0.1909384740545  0.3749820840744 1.0
Se     1 -0.0156151000000  0.1909384740545 -0.3749820840744 1.0
Ag     2  0.4843849000000 -0.2727135021349 -0.4050144563020 1.0
Ag     2  0.4843849000000  0.2727135021349  0.4050144563020 1.0
Ag     2  0.4843849000000  0.4050144563020 -0.2727135021349 1.0
Ag     2  0.4843849000000 -0.4050144563020  0.2727135021349 1.0
Ag     2  0.4843849000000 -0.2256313160636 -0.0095625736210 1.0
Ag     2  0.4843849000000  0.2256313160636  0.0095625736210 1.0
Ag     2  0.4843849000000  0.0095625736210 -0.2256313160636 1.0
Ag     2  0.4843849000000 -0.0095625736210  0.2256313160636 1.0
END
