TITL 4Ag2Se_CONSTCUT_NOSYM-200810-205138-b2b7af -0.0478 229.265382 -4.61176816E+004 0 0 12 (Cm) n - 1
REM
REM Run started: Mon, 10 Aug 2020 23:25:24 +0100 in /lustre/scratch/uccabz1/launch_tmp/launcher_2020-08-10-19-51-36-915274
REM CASTEP 20.1 from code version af48c487+ pr-geom-scf-spinfix Tue Jun 2 15:39:59 2020 +0100
REM Functional PBE for solids (2008) Relativity Koelling-Harmon Dispersion off
REM Cut-off 300.0000 eV Grid scale 2.0000 Gmax 26.6208 1/A FBSC none
REM MP grid 6 5 2 Offset 0.000 0.000 0.000 No. kpts 30 Spacing 0.05
REM Total runtime: 9353.03 s
REM Overall efficiency: 84.4286 %
REM
REM 4Ag2Se_CONSTCUT_NOSYM.cell (04f5f378ecb9f162ba8e0859c4ea5e99)
REM
REM compiler GCC version 4.9.2
REM options -cpp -iprefix /lustre/shared/ucl/apps/gcc/4.9.2/bin/../lib/gcc/x86_64-unknown-linux-gnu/4.9.2/ -mtune=corei7 -march=x86-64 -g -Og
REM COMMAND_LINE
REM seed -1445418108 -1213561258 -1737172763 -136670971 -1204645706 -756976313 1031772822 1119783013 645243898 1660714618 864071632 1471804398
REM
REM Se 3|2.1|7|7|9|40:41:32(qc=5)
REM Ag 3|2.2|7|7|9|40U:50:41:42(qc=5)
REM 
CELL 1.54180    3.99981    4.09041   14.19660   81.97419   85.47229   89.90534
LATT -1
SFAC Se Ag 
Se     1 -0.0562912875533 -0.4117724988308 -0.3285227817056 1.0
Se     1 -0.1766712208436  0.4610149532873 -0.0695452078216 1.0
Se     1 -0.3211093084902  0.1912371506976  0.4893716059517 1.0
Se     1  0.2292095012470 -0.1826036686835  0.2174213580580 1.0
Ag     2 -0.2897893542686 -0.2556876971682  0.3771717228079 1.0
Ag     2 -0.2600665325303  0.3148602059509  0.2276349820772 1.0
Ag     2  0.3904627549956  0.0925007401860 -0.3396146001487 1.0
Ag     2  0.2141600783637  0.2460536691015  0.3730104762458 1.0
Ag     2  0.2848131544731  0.3893804780783  0.0763476397989 1.0
Ag     2  0.3116067935068 -0.0360199798700 -0.0753880463178 1.0
Ag     2 -0.2219560705450 -0.1098684694309  0.0740916429034 1.0
Ag     2  0.4068871916449 -0.4715645833182 -0.2085289918493 1.0
END
