TITL 4Ag2Se_CONSTCUT_NOSYM-200810-213653-31367a -0.0953 224.100418 -4.61182625E+004 0 0 12 (P1) n - 1
REM
REM Run started: Tue, 11 Aug 2020 07:36:13 +0100 in /lustre/scratch/uccabz1/launch_tmp/launcher_2020-08-10-20-36-52-165229
REM CASTEP 20.1 from code version af48c487+ pr-geom-scf-spinfix Tue Jun 2 15:39:59 2020 +0100
REM Functional PBE for solids (2008) Relativity Koelling-Harmon Dispersion off
REM Cut-off 300.0000 eV Grid scale 2.0000 Gmax 26.6208 1/A FBSC none
REM MP grid 5 4 3 Offset 0.000 0.000 0.000 No. kpts 30 Spacing 0.05
REM Total runtime: 40006.8 s
REM Overall efficiency: 97 %
REM
REM 4Ag2Se_CONSTCUT_NOSYM.cell (04f5f378ecb9f162ba8e0859c4ea5e99)
REM
REM compiler GCC version 4.9.2
REM options -cpp -iprefix /lustre/shared/ucl/apps/gcc/4.9.2/bin/../lib/gcc/x86_64-unknown-linux-gnu/4.9.2/ -mtune=corei7 -march=x86-64 -g -Og
REM COMMAND_LINE
REM seed 529592823 -1607410008 -862156823 -974068864 -1701505195 1212417622 -326757463 1990334035 -2102655196 1513229750 -1629870430 1037234633
REM
REM Se 3|2.1|7|7|9|40:41:32(qc=5)
REM Ag 3|2.2|7|7|9|40U:50:41:42(qc=5)
REM 
CELL 1.54180    4.61654    5.76883    8.69165  100.07867   80.59179   96.15741
LATT -1
SFAC Se Ag 
Se     1  0.2418797068721 -0.1366558607763  0.0752212667171 1.0
Se     1  0.1553733243419 -0.0855431093916 -0.3380345115634 1.0
Se     1 -0.2693890590076  0.3009676845846  0.2866079506059 1.0
Se     1 -0.2840937991978  0.3875039858070 -0.1362731107878 1.0
Ag     2 -0.3263233027359 -0.2761968700330 -0.4482360072615 1.0
Ag     2  0.1959402203357  0.4854784418677  0.4285441751162 1.0
Ag     2 -0.3455569383139  0.2229486308751 -0.4248282134801 1.0
Ag     2 -0.3283758777461 -0.2785517492142  0.2123934619307 1.0
Ag     2  0.1695492458397 -0.0228762404424  0.3784234892182 1.0
Ag     2  0.2318231771088  0.3642896780417  0.0810605377736 1.0
Ag     2  0.2623234003567 -0.4606239006903 -0.2186664025872 1.0
Ag     2 -0.2003099978536 -0.0053349906283 -0.0449898356816 1.0
END
