TITL 4Ag2Se_CONSTCUT_NOSYM-200811-034237-cf07dc -0.0108 228.201418 -4.61185036E+004 0 0 12 (P1) n - 1
REM
REM Run started: Tue, 11 Aug 2020 12:21:14 +0100 in /lustre/scratch/uccabz1/launch_tmp/launcher_2020-08-11-02-42-35-840853
REM CASTEP 20.1 from code version af48c487+ pr-geom-scf-spinfix Tue Jun 2 15:39:59 2020 +0100
REM Functional PBE for solids (2008) Relativity Koelling-Harmon Dispersion off
REM Cut-off 300.0000 eV Grid scale 2.0000 Gmax 26.6208 1/A FBSC none
REM MP grid 5 3 3 Offset 0.000 0.000 0.000 No. kpts 23 Spacing 0.05
REM Total runtime: 33677.7 s
REM Overall efficiency: 90.8333 %
REM
REM 4Ag2Se_CONSTCUT_NOSYM.cell (04f5f378ecb9f162ba8e0859c4ea5e99)
REM
REM compiler GCC version 4.9.2
REM options -cpp -iprefix /lustre/shared/ucl/apps/gcc/4.9.2/bin/../lib/gcc/x86_64-unknown-linux-gnu/4.9.2/ -mtune=corei7 -march=x86-64 -g -Og
REM COMMAND_LINE
REM seed -1516028391 285902190 -853250936 419857949 412767450 444747489 1140802228 275198729 -134821851 399469071 884925155 -2039758128
REM
REM Se 3|2.1|7|7|9|40:41:32(qc=5)
REM Ag 3|2.2|7|7|9|40U:50:41:42(qc=5)
REM 
CELL 1.54180    4.21291    7.12371    7.81369   91.95904   84.32193   78.36350
LATT -1
SFAC Se Ag 
Se     1 -0.4353897573646 -0.0897041452238 -0.2816887122940 1.0
Se     1 -0.2896602885590  0.4591920790503 -0.0283563376154 1.0
Se     1  0.3084828531188  0.5110707813318  0.4158028082318 1.0
Se     1 -0.6794402127427 -0.0399428625875  0.1820545516284 1.0
Ag     2 -0.1423900374219  0.0222378545006 -0.0261310012091 1.0
Ag     2 -0.2110790730604  0.4095341542552 -0.3746972948642 1.0
Ag     2 -0.1139938194860  0.2855596758686  0.2657110612121 1.0
Ag     2  0.1671304903229 -0.3359940400436 -0.2437651791079 1.0
Ag     2 -0.0205773961547 -0.1091038589922  0.4531559402343 1.0
Ag     2  0.2873066599556  0.2605792094078 -0.1576694509793 1.0
Ag     2  0.3906761328853  0.1544574582753 -0.5143982628429 1.0
Ag     2  0.0665281485068 -0.3415698058426  0.1223263776062 1.0
END
