TITL 4Ag2Se_CONSTCUT_NOSYM-200811-033258-13e960 -0.1702 222.689218 -4.61180988E+004 0 0 12 (P1) n - 1
REM
REM Run started: Tue, 11 Aug 2020 12:27:25 +0100 in /lustre/scratch/uccabz1/launch_tmp/launcher_2020-08-11-02-32-57-219200
REM CASTEP 20.1 from code version af48c487+ pr-geom-scf-spinfix Tue Jun 2 15:39:59 2020 +0100
REM Functional PBE for solids (2008) Relativity Koelling-Harmon Dispersion off
REM Cut-off 300.0000 eV Grid scale 2.0000 Gmax 26.6208 1/A FBSC none
REM MP grid 4 4 3 Offset 0.000 0.000 0.000 No. kpts 24 Spacing 0.05
REM Total runtime: 35466.2 s
REM Overall efficiency: 98.6667 %
REM
REM 4Ag2Se_CONSTCUT_NOSYM.cell (04f5f378ecb9f162ba8e0859c4ea5e99)
REM
REM compiler GCC version 4.9.2
REM options -cpp -iprefix /lustre/shared/ucl/apps/gcc/4.9.2/bin/../lib/gcc/x86_64-unknown-linux-gnu/4.9.2/ -mtune=corei7 -march=x86-64 -g -Og
REM COMMAND_LINE
REM seed 1375153008 -2020038503 -288310765 1654970744 1088845411 514068419 -577767579 445961072 1443318083 -1301237433 817247695 1987208044
REM
REM Se 3|2.1|7|7|9|40:41:32(qc=5)
REM Ag 3|2.2|7|7|9|40U:50:41:42(qc=5)
REM 
CELL 1.54180    5.51787    5.25156    7.98982  103.67818   85.46088   97.63668
LATT -1
SFAC Se Ag 
Se     1 -0.0119045457134 -0.0887454427683  0.2612664517701 1.0
Se     1 -0.1259264955632  0.0209091591916 -0.2917154363017 1.0
Se     1  0.4535996843472  0.5484548639556 -0.0853463883738 1.0
Se     1 -0.4334604182539  0.3712748607681  0.3331626903969 1.0
Ag     2  0.2331530936330  0.1134353205559  0.0142432294494 1.0
Ag     2  0.2641402041425 -0.2457649874258 -0.3086740227514 1.0
Ag     2 -0.2256440806514 -0.5191698671009 -0.3621006176548 1.0
Ag     2  0.0761384214515 -0.5363770969303  0.3355243118704 1.0
Ag     2  0.4758973305833 -0.1650945544757  0.3010126533472 1.0
Ag     2 -0.0513228935976 -0.4692139977887 -0.0261220415813 1.0
Ag     2 -0.2810690229111  0.0452309478719  0.0277039934105 1.0
Ag     2  0.2767113225331  0.2139641941467 -0.4262817235814 1.0
END
