TITL 4Ag2Se_CONSTCUT_NOSYM-200810-184121-39af68 -0.0171 227.815694 -4.61183591E+004 0 0 12 (P1) n - 1
REM
REM Run started: Tue, 11 Aug 2020 01:55:20 +0100 in /lustre/scratch/uccabz1/launch_tmp/launcher_2020-08-10-17-41-20-090479
REM CASTEP 20.1 from code version af48c487+ pr-geom-scf-spinfix Tue Jun 2 15:39:59 2020 +0100
REM Functional PBE for solids (2008) Relativity Koelling-Harmon Dispersion off
REM Cut-off 300.0000 eV Grid scale 2.0000 Gmax 26.6208 1/A FBSC none
REM MP grid 5 4 3 Offset 0.000 0.000 0.000 No. kpts 30 Spacing 0.05
REM Total runtime: 26187.1 s
REM Overall efficiency: 97.2 %
REM
REM 4Ag2Se_CONSTCUT_NOSYM.cell (04f5f378ecb9f162ba8e0859c4ea5e99)
REM
REM compiler GCC version 4.9.2
REM options -cpp -iprefix /lustre/shared/ucl/apps/gcc/4.9.2/bin/../lib/gcc/x86_64-unknown-linux-gnu/4.9.2/ -mtune=corei7 -march=x86-64 -g -Og
REM COMMAND_LINE
REM seed 655601748 44591550 1323494420 1797900731 -1016386905 -1683816537 -1842478123 -1603004919 590506670 1187175396 656257136 -877402227
REM
REM Se 3|2.1|7|7|9|40:41:32(qc=5)
REM Ag 3|2.2|7|7|9|40U:50:41:42(qc=5)
REM 
CELL 1.54180    4.31908    6.43608    8.27938   91.52316   96.06367   95.07232
LATT -1
SFAC Se Ag 
Se     1 -0.4671702470879  0.1671668194760 -0.1518466129567 1.0
Se     1 -0.2957421954105 -0.1606718777654  0.1618424918932 1.0
Se     1  0.2085490576271  0.2253999565433  0.3661428183323 1.0
Se     1  0.0488355413616 -0.2402729325865 -0.3771877214784 1.0
Ag     2 -0.2800372839424  0.4576155871307  0.4258906469544 1.0
Ag     2  0.1922978189670 -0.3859513728341  0.2545091133543 1.0
Ag     2  0.1598305424567 -0.2473994967915 -0.0622206474266 1.0
Ag     2  0.0803542386841  0.1737320206770  0.0518557903278 1.0
Ag     2 -0.4477947919532 -0.0799342138635  0.4704211052797 1.0
Ag     2 -0.3672873785242  0.4657926065173  0.0577340598948 1.0
Ag     2 -0.4612047046229 -0.4544254095344 -0.2723610648838 1.0
Ag     2 -0.0066122975554  0.2084363130311 -0.3385709792910 1.0
END
