TITL 4Ag2Se_CONSTCUT-200811-073326-270bfd 0.0237 229.304736 -4.61181240E+004 0 0 12 (C2) n - 1
REM
REM Run started: Tue, 11 Aug 2020 19:04:02 +0100 in /lustre/scratch/uccabz1/launch_tmp/launcher_2020-08-11-06-33-24-727467
REM CASTEP 20.1 from code version af48c487+ pr-geom-scf-spinfix Tue Jun 2 15:39:59 2020 +0100
REM Functional PBE for solids (2008) Relativity Koelling-Harmon Dispersion off
REM Cut-off 300.0000 eV Grid scale 2.0000 Gmax 26.6208 1/A FBSC none
REM MP grid 4 4 4 Offset 0.000 0.000 0.000 No. kpts 20 Spacing 0.05
REM Total runtime: 41595.1 s
REM Overall efficiency: 98.1667 %
REM
REM 4Ag2Se_CONSTCUT.cell (097ebf1fd09fb02df10c18b5c3809341)
REM
REM compiler GCC version 4.9.2
REM options -cpp -iprefix /lustre/shared/ucl/apps/gcc/4.9.2/bin/../lib/gcc/x86_64-unknown-linux-gnu/4.9.2/ -mtune=corei7 -march=x86-64 -g -Og
REM COMMAND_LINE
REM seed -1210993066 1627506693 -235492047 -98675928 32859810 -1057852263 863192726 638459538 -1411492656 1644155464 -890100543 -1416355378
REM
REM Se 3|2.1|7|7|9|40:41:32(qc=5)
REM Ag 3|2.2|7|7|9|40U:50:41:42(qc=5)
REM 
CELL 1.54180    6.68823    6.68823    7.70300  125.16079  125.16079   74.36759
LATT -1
SFAC Se Ag 
Se     1 -0.2943364573253 -0.2762650966493 -0.1802252600138 1.0
Se     1  0.2762650966493  0.2943364573253  0.1802252600138 1.0
Se     1  0.1403042735507  0.4109551290104 -0.2781940554809 1.0
Se     1 -0.4109551290104 -0.1403042735507  0.2781940554809 1.0
Ag     2  0.2271939935000 -0.2954860418659 -0.3557272687110 1.0
Ag     2  0.2954860418659 -0.2271939935000  0.3557272687110 1.0
Ag     2  0.4852321750875  0.1475915336506 -0.1020798810653 1.0
Ag     2 -0.1475915336506 -0.4852321750875  0.1020798810653 1.0
Ag     2 -0.0721333904392  0.0760450933145  0.2661398665803 1.0
Ag     2 -0.0760450933145  0.0721333904392 -0.2661398665803 1.0
Ag     2 -0.2552027795795  0.5446673973339  0.4227855478666 1.0
Ag     2 -0.5446673973339  0.2552027795795 -0.4227855478666 1.0
END
