TITL 4Ag2Se_CONSTCUT-200811-060529-6f502d 0.0083 231.990348 -4.61171234E+004 0 0 12 (P3) n - 1
REM
REM Run started: Tue, 11 Aug 2020 09:13:21 +0100 in /lustre/scratch/uccabz1/launch_tmp/launcher_2020-08-11-05-05-27-747994
REM CASTEP 20.1 from code version af48c487+ pr-geom-scf-spinfix Tue Jun 2 15:39:59 2020 +0100
REM Functional PBE for solids (2008) Relativity Koelling-Harmon Dispersion off
REM Cut-off 300.0000 eV Grid scale 2.0000 Gmax 26.6208 1/A FBSC none
REM MP grid 4 4 4 Offset 0.000 0.000 0.000 No. kpts 32 Spacing 0.05
REM Total runtime: 11411.3 s
REM Overall efficiency: 97.1667 %
REM
REM 4Ag2Se_CONSTCUT.cell (097ebf1fd09fb02df10c18b5c3809341)
REM
REM compiler GCC version 4.9.2
REM options -cpp -iprefix /lustre/shared/ucl/apps/gcc/4.9.2/bin/../lib/gcc/x86_64-unknown-linux-gnu/4.9.2/ -mtune=corei7 -march=x86-64 -g -Og
REM COMMAND_LINE
REM seed -1740190610 963356474 -1071087577 -1513643576 -2045625551 -527532297 72764176 2098316824 1800487014 1853040891 605800830 62808188
REM
REM Se 3|2.1|7|7|9|40:41:32(qc=5)
REM Ag 3|2.2|7|7|9|40U:50:41:42(qc=5)
REM 
CELL 1.54180    5.37625    7.05879    7.05879  120.00000   90.00000   90.00000
LATT -1
SFAC Se Ag 
Se     1 -0.4966556731025 -0.3860896393812 -0.4177446889410 1.0
Se     1 -0.4966556731025 -0.0316550495598  0.3860896393812 1.0
Se     1 -0.4966556731025  0.4177446889410  0.0316550495598 1.0
Se     1 -0.0877989459078 -0.0000000000000  0.0000000000000 1.0
Ag     2 -0.0130551932857 -0.0757193528076  0.3730494660543 1.0
Ag     2 -0.0130551932857  0.4487688188619  0.0757193528076 1.0
Ag     2 -0.0130551932857 -0.3730494660543 -0.4487688188619 1.0
Ag     2  0.2845514641790  0.0043681571388 -0.2428357870341 1.0
Ag     2  0.2845514641790 -0.2472039441729 -0.0043681571388 1.0
Ag     2  0.2845514641790  0.2428357870341  0.2472039441729 1.0
Ag     2  0.2406195245519  0.3333333333333 -0.3333333333333 1.0
Ag     2 -0.2462180720165  0.3333333333333 -0.3333333333333 1.0
END
