TITL 4Ag2Se_CONSTCUT_NOSYM-200810-174226-b49bef -0.0175 216.369915 -4.61185546E+004 0 0 12 (P1) n - 1
REM
REM Run started: Mon, 10 Aug 2020 20:39:36 +0100 in /lustre/scratch/uccabz1/launch_tmp/launcher_2020-08-10-16-42-25-114771
REM CASTEP 20.1 from code version af48c487+ pr-geom-scf-spinfix Tue Jun 2 15:39:59 2020 +0100
REM Functional PBE for solids (2008) Relativity Koelling-Harmon Dispersion off
REM Cut-off 300.0000 eV Grid scale 2.0000 Gmax 26.6208 1/A FBSC none
REM MP grid 5 5 2 Offset 0.000 0.000 0.000 No. kpts 25 Spacing 0.05
REM Total runtime: 10708.5 s
REM Overall efficiency: 80.75 %
REM
REM 4Ag2Se_CONSTCUT_NOSYM.cell (04f5f378ecb9f162ba8e0859c4ea5e99)
REM
REM compiler GCC version 4.9.2
REM options -cpp -iprefix /lustre/shared/ucl/apps/gcc/4.9.2/bin/../lib/gcc/x86_64-unknown-linux-gnu/4.9.2/ -mtune=corei7 -march=x86-64 -g -Og
REM COMMAND_LINE
REM seed -1684982314 -371857217 -1691689122 2145714198 -996260036 -1834984129 -225591066 -1048487009 2049846175 1387445122 872369222 1326655453
REM
REM Se 3|2.1|7|7|9|40:41:32(qc=5)
REM Ag 3|2.2|7|7|9|40U:50:41:42(qc=5)
REM 
CELL 1.54180    4.07481    4.07395   13.40187   80.82125   80.27810   90.19847
LATT -1
SFAC Se Ag 
Se     1 -0.1991813445440 -0.4368991745382 -0.4734134526955 1.0
Se     1 -0.0412098569116 -0.2767522592392  0.2308907859505 1.0
Se     1 -0.4196466734761  0.1302386871001  0.0243572507985 1.0
Se     1  0.2342575539347 -0.2239010079776 -0.2671198572848 1.0
Ag     2 -0.2489907420806  0.2489144368095 -0.2823392676171 1.0
Ag     2  0.0762152020071 -0.4147669017516  0.0408040326933 1.0
Ag     2  0.3782968240671 -0.3530896340063  0.3783092543404 1.0
Ag     2  0.2888750952910  0.0682843198246 -0.4623770326886 1.0
Ag     2 -0.1212966113082  0.1493828787349  0.3781413356225 1.0
Ag     2  0.4654433332799  0.2436121263334  0.2175437576875 1.0
Ag     2 -0.3357367058810 -0.3265666128020 -0.1226745132337 1.0
Ag     2  0.1631192256216  0.1720338415123 -0.1204571935731 1.0
END
