TITL 4Ag2Se_CONSTCUT-200811-144037-fd7323 0.0288 229.452359 -4.61180741E+004 0 0 12 (Cc) n - 1
REM
REM Run started: Wed, 12 Aug 2020 00:00:29 +0100 in /lustre/scratch/uccabz1/launch_tmp/launcher_2020-08-11-13-40-35-530277
REM CASTEP 20.1 from code version af48c487+ pr-geom-scf-spinfix Tue Jun 2 15:39:59 2020 +0100
REM Functional PBE for solids (2008) Relativity Koelling-Harmon Dispersion off
REM Cut-off 300.0000 eV Grid scale 2.0000 Gmax 26.6208 1/A FBSC none
REM MP grid 4 4 3 Offset 0.000 0.000 0.000 No. kpts 16 Spacing 0.05
REM Total runtime: 36833.5 s
REM Overall efficiency: 98.4167 %
REM
REM 4Ag2Se_CONSTCUT.cell (097ebf1fd09fb02df10c18b5c3809341)
REM
REM compiler GCC version 4.9.2
REM options -cpp -iprefix /lustre/shared/ucl/apps/gcc/4.9.2/bin/../lib/gcc/x86_64-unknown-linux-gnu/4.9.2/ -mtune=corei7 -march=x86-64 -g -Og
REM COMMAND_LINE
REM seed -472921490 -523411883 -933865835 96896773 -1730220146 467223770 -1810913642 -88409129 453995907 -1222215058 -1722643065 -1632637513
REM
REM Se 3|2.1|7|7|9|40:41:32(qc=5)
REM Ag 3|2.2|7|7|9|40U:50:41:42(qc=5)
REM 
CELL 1.54180    5.12345    5.12345    8.76611   91.61945   91.61945   93.62364
LATT -1
SFAC Se Ag 
Se     1  0.2616459789985 -0.2336974171979  0.4215593153198 1.0
Se     1  0.2663025828021 -0.2383540210015 -0.0784406846802 1.0
Se     1 -0.1265285344230  0.1793461919520 -0.4301608868021 1.0
Se     1 -0.3206538080480  0.3734714655770  0.0698391131979 1.0
Ag     2 -0.4617855766186  0.1247132599947  0.3044770947316 1.0
Ag     2 -0.3752867400053  0.0382144233814 -0.1955229052684 1.0
Ag     2  0.1597442833192 -0.5590289704509  0.1905453924859 1.0
Ag     2 -0.0590289704509 -0.3402557166808 -0.3094546075141 1.0
Ag     2 -0.2480591768675 -0.3631690307051  0.3728280945651 1.0
Ag     2  0.1368309692949  0.2519408231325 -0.1271719054349 1.0
Ag     2 -0.0911294240235 -0.0796575839780  0.1046448896997 1.0
Ag     2  0.4203424160220  0.4088705759765 -0.3953551103003 1.0
END
