TITL 4Ag2Se_CONSTCUT_NOSYM-200810-211608-10fa54 -0.0572 216.227415 -4.61183834E+004 0 0 12 (P1) n - 1
REM
REM Run started: Tue, 11 Aug 2020 07:27:08 +0100 in /lustre/scratch/uccabz1/launch_tmp/launcher_2020-08-10-20-16-06-694778
REM CASTEP 20.1 from code version af48c487+ pr-geom-scf-spinfix Tue Jun 2 15:39:59 2020 +0100
REM Functional PBE for solids (2008) Relativity Koelling-Harmon Dispersion off
REM Cut-off 300.0000 eV Grid scale 2.0000 Gmax 26.6208 1/A FBSC none
REM MP grid 5 4 3 Offset 0.000 0.000 0.000 No. kpts 30 Spacing 0.05
REM Total runtime: 40277.3 s
REM Overall efficiency: 98.4167 %
REM
REM 4Ag2Se_CONSTCUT_NOSYM.cell (04f5f378ecb9f162ba8e0859c4ea5e99)
REM
REM compiler GCC version 4.9.2
REM options -cpp -iprefix /lustre/shared/ucl/apps/gcc/4.9.2/bin/../lib/gcc/x86_64-unknown-linux-gnu/4.9.2/ -mtune=corei7 -march=x86-64 -g -Og
REM COMMAND_LINE
REM seed 2021111457 1706540652 -965043492 835018184 -1956471507 2014896524 -1986473649 -1370608172 -830095494 -1170423426 1498619224 -179839215
REM
REM Se 3|2.1|7|7|9|40:41:32(qc=5)
REM Ag 3|2.2|7|7|9|40U:50:41:42(qc=5)
REM 
CELL 1.54180    4.65388    5.61310    8.32885   84.04654   87.97223   88.75249
LATT -1
SFAC Se Ag 
Se     1  0.3130916072838  0.1817461184570 -0.4048690795222 1.0
Se     1 -0.2180169596789 -0.3372099575542  0.4020794622402 1.0
Se     1 -0.2181301951409 -0.3979434479465 -0.0001756183988 1.0
Se     1  0.2629135364203  0.0399568857072  0.1807360665114 1.0
Ag     2  0.2670027157558 -0.3148037649669 -0.4419460038460 1.0
Ag     2 -0.2330094755374  0.0835495686653  0.0018074763862 1.0
Ag     2 -0.2370447553003 -0.5327177338642 -0.2914954645820 1.0
Ag     2 -0.1902863373526 -0.0322924243027 -0.3233948235415 1.0
Ag     2 -0.2392801870096  0.1965332654183  0.3332101923510 1.0
Ag     2  0.2874074347758 -0.1519572953457 -0.1242829758392 1.0
Ag     2  0.2646459288113  0.3506097529939 -0.1021467787942 1.0
Ag     2  0.2738128869725 -0.4847812672615  0.2404373470349 1.0
END
