TITL 4Ag2Se_CONSTCUT-200811-145535-b2db69 0.0185 223.780330 -4.61181155E+004 0 0 12 (Fdd2) n - 1
REM
REM Run started: Tue, 11 Aug 2020 16:14:56 +0100 in /lustre/scratch/uccabz1/launch_tmp/launcher_2020-08-11-13-55-33-960646
REM CASTEP 20.1 from code version af48c487+ pr-geom-scf-spinfix Tue Jun 2 15:39:59 2020 +0100
REM Functional PBE for solids (2008) Relativity Koelling-Harmon Dispersion off
REM Cut-off 300.0000 eV Grid scale 2.0000 Gmax 26.6208 1/A FBSC none
REM MP grid 4 4 5 Offset 0.000 0.000 0.000 No. kpts 26 Spacing 0.05
REM Total runtime: 4836.44 s
REM Overall efficiency: 77.6667 %
REM
REM 4Ag2Se_CONSTCUT.cell (097ebf1fd09fb02df10c18b5c3809341)
REM
REM compiler GCC version 4.9.2
REM options -cpp -iprefix /lustre/shared/ucl/apps/gcc/4.9.2/bin/../lib/gcc/x86_64-unknown-linux-gnu/4.9.2/ -mtune=corei7 -march=x86-64 -g -Og
REM COMMAND_LINE
REM seed 1829086640 -721918083 416472277 564293884 2048265114 1102389442 -1856593854 -1103745956 1162394547 -548712010 29346964 -867983282
REM
REM Se 3|2.1|7|7|9|40:41:32(qc=5)
REM Ag 3|2.2|7|7|9|40U:50:41:42(qc=5)
REM 
CELL 1.54180    6.87339    6.87339    6.47015  114.09797  114.09797  103.37427
LATT -1
SFAC Se Ag 
Se     1  0.1738910410982 -0.4226730802295  0.1397064984916 1.0
Se     1  0.4376204212789  0.0341845426066 -0.1397064984916 1.0
Se     1 -0.1726730802295 -0.0761089589018 -0.3602935015084 1.0
Se     1  0.2841845426066  0.1876204212789  0.3602935015084 1.0
Ag     2 -0.4204316282200  0.4603199750923  0.2695443654734 1.0
Ag     2  0.1907756096189  0.3100240063066 -0.2695443654734 1.0
Ag     2 -0.2896800249077  0.3295683717800 -0.2304556345266 1.0
Ag     2 -0.4399759936934 -0.0592243903811  0.2304556345266 1.0
Ag     2  0.0457262502899 -0.3221861938510 -0.2337272997851 1.0
Ag     2 -0.0884588940658  0.2794535500750  0.2337272997851 1.0
Ag     2 -0.0721861938510 -0.2042737497101  0.2662727002149 1.0
Ag     2 -0.4705464499250 -0.3384588940658 -0.2662727002149 1.0
END
