TITL 4Ag2Se_CONSTCUT_NOSYM-200810-172034-913fda 0.0349 219.913850 -4.61180637E+004 0 0 12 (P1) n - 1
REM
REM Run started: Tue, 11 Aug 2020 06:36:07 +0100 in /lustre/scratch/uccabz1/launch_tmp/launcher_2020-08-10-16-20-32-636587
REM CASTEP 20.1 from code version af48c487+ pr-geom-scf-spinfix Tue Jun 2 15:39:59 2020 +0100
REM Functional PBE for solids (2008) Relativity Koelling-Harmon Dispersion off
REM Cut-off 300.0000 eV Grid scale 2.0000 Gmax 26.6208 1/A FBSC none
REM MP grid 5 4 4 Offset 0.000 0.000 0.000 No. kpts 40 Spacing 0.05
REM Total runtime: 47903.9 s
REM Overall efficiency: 97.8462 %
REM
REM 4Ag2Se_CONSTCUT_NOSYM.cell (04f5f378ecb9f162ba8e0859c4ea5e99)
REM
REM compiler GCC version 4.9.2
REM options -cpp -iprefix /lustre/shared/ucl/apps/gcc/4.9.2/bin/../lib/gcc/x86_64-unknown-linux-gnu/4.9.2/ -mtune=corei7 -march=x86-64 -g -Og
REM COMMAND_LINE
REM seed 753054953 721050518 834929142 824754185 1469253424 -1723091538 1840470535 770392192 -2051328014 -1090885321 -1395549686 1378116193
REM
REM Se 3|2.1|7|7|9|40:41:32(qc=5)
REM Ag 3|2.2|7|7|9|40U:50:41:42(qc=5)
REM 
CELL 1.54180    5.38069    7.17103    7.09305   69.91209   81.49537   58.88739
LATT -1
SFAC Se Ag 
Se     1 -0.5067453595428 -0.2221975234347 -0.1183336553181 1.0
Se     1 -0.3673166333612  0.4613582382525 -0.4243789886602 1.0
Se     1 -0.1745293865243 -0.0861645396949  0.4237247901148 1.0
Se     1  0.2158988224511  0.3355775040270  0.1334578101804 1.0
Ag     2  0.0754281240534 -0.2179573986935  0.1200405017600 1.0
Ag     2 -0.3913664349418  0.1073325653433 -0.1758926016651 1.0
Ag     2 -0.3160434241836  0.3631616369036  0.2241056462163 1.0
Ag     2  0.0781258928649 -0.3472089511234 -0.2198280282170 1.0
Ag     2  0.1780277841457  0.4312474734683 -0.5072328717275 1.0
Ag     2  0.0158431988630  0.2235548711797 -0.1145706617495 1.0
Ag     2  0.1696946660955  0.0318867401247 -0.4606858065088 1.0
Ag     2 -0.4927501499198 -0.1523497163527  0.2238325655747 1.0
END
