TITL 4Ag2Se_CONSTCUT_NOSYM-200810-235938-57d948 -0.0451 223.912368 -4.61184680E+004 0 0 12 (P1) n - 1
REM
REM Run started: Tue, 11 Aug 2020 10:50:16 +0100 in /lustre/scratch/uccabz1/launch_tmp/launcher_2020-08-10-22-59-36-970379
REM CASTEP 20.1 from code version af48c487+ pr-geom-scf-spinfix Tue Jun 2 15:39:59 2020 +0100
REM Functional PBE for solids (2008) Relativity Koelling-Harmon Dispersion off
REM Cut-off 300.0000 eV Grid scale 2.0000 Gmax 26.6208 1/A FBSC none
REM MP grid 5 3 4 Offset 0.000 0.000 0.000 No. kpts 30 Spacing 0.05
REM Total runtime: 39177.7 s
REM Overall efficiency: 97.4167 %
REM
REM 4Ag2Se_CONSTCUT_NOSYM.cell (04f5f378ecb9f162ba8e0859c4ea5e99)
REM
REM compiler GCC version 4.9.2
REM options -cpp -iprefix /lustre/shared/ucl/apps/gcc/4.9.2/bin/../lib/gcc/x86_64-unknown-linux-gnu/4.9.2/ -mtune=corei7 -march=x86-64 -g -Og
REM COMMAND_LINE
REM seed -1946307253 653735886 1794657630 1229540134 -1463889940 1681148864 1975731168 790798356 -1963314881 -1980115716 -397560020 -449194634
REM
REM Se 3|2.1|7|7|9|40:41:32(qc=5)
REM Ag 3|2.2|7|7|9|40U:50:41:42(qc=5)
REM 
CELL 1.54180    4.82678    7.55747    6.66382  106.10402   97.68495  101.76435
LATT -1
SFAC Se Ag 
Se     1 -0.2379631151927 -0.2893499592302  0.1444350798814 1.0
Se     1  0.4433338755334  0.2024836413039 -0.4754062686509 1.0
Se     1  0.0951607368034 -0.3744282852113 -0.3351687145986 1.0
Se     1  0.0510111310593  0.1250465751473 -0.0485503310746 1.0
Ag     2 -0.4564326435676  0.5002339732262  0.3727501445889 1.0
Ag     2 -0.3389711541171 -0.2145584275127 -0.2351229941658 1.0
Ag     2  0.4827748821130 -0.0021090732945  0.1140495154808 1.0
Ag     2 -0.0263574752291  0.3101860365920  0.3332665469763 1.0
Ag     2  0.2963912951039 -0.1874256436908  0.4060761741308 1.0
Ag     2 -0.3904508989755  0.3090763499043 -0.0547764312783 1.0
Ag     2  0.1817124436760 -0.4882982365425  0.0036864272835 1.0
Ag     2 -0.1145629772071  0.0177252493080 -0.4794442485734 1.0
END
