TITL 4Ag2Se_CONSTCUT_NOSYM-200810-200556-6cfea0 -0.0098 225.926732 -4.61183373E+004 0 0 12 (P1) n - 1
REM
REM Run started: Tue, 11 Aug 2020 05:06:20 +0100 in /lustre/scratch/uccabz1/launch_tmp/launcher_2020-08-10-19-05-54-674105
REM CASTEP 20.1 from code version af48c487+ pr-geom-scf-spinfix Tue Jun 2 15:39:59 2020 +0100
REM Functional PBE for solids (2008) Relativity Koelling-Harmon Dispersion off
REM Cut-off 300.0000 eV Grid scale 2.0000 Gmax 26.6208 1/A FBSC none
REM MP grid 5 3 3 Offset 0.000 0.000 0.000 No. kpts 23 Spacing 0.05
REM Total runtime: 32609.7 s
REM Overall efficiency: 92.0769 %
REM
REM 4Ag2Se_CONSTCUT_NOSYM.cell (04f5f378ecb9f162ba8e0859c4ea5e99)
REM
REM compiler GCC version 4.9.2
REM options -cpp -iprefix /lustre/shared/ucl/apps/gcc/4.9.2/bin/../lib/gcc/x86_64-unknown-linux-gnu/4.9.2/ -mtune=corei7 -march=x86-64 -g -Og
REM COMMAND_LINE
REM seed -1592343217 -1943502835 -907302808 -6130962 1677460509 998142432 823500969 -202872816 625034202 1002375984 -348589991 732979425
REM
REM Se 3|2.1|7|7|9|40:41:32(qc=5)
REM Ag 3|2.2|7|7|9|40U:50:41:42(qc=5)
REM 
CELL 1.54180    4.86589    6.73776    6.92497   88.24715   95.33907   89.42366
LATT -1
SFAC Se Ag 
Se     1 -0.2600050966959  0.4352597773882 -0.4316065802868 1.0
Se     1  0.4961825426817 -0.0606702819964 -0.2667987126269 1.0
Se     1 -0.0357425050183 -0.1267444901189  0.0979077440920 1.0
Se     1  0.3366126824402  0.3231714759914  0.0629039663474 1.0
Ag     2 -0.2144015698603  0.1835755628326  0.2784625359395 1.0
Ag     2  0.0245362656684  0.1241153053179 -0.2704428252041 1.0
Ag     2  0.2330316773653 -0.3895595624000 -0.2464637837554 1.0
Ag     2 -0.1697976184126 -0.1918157904415 -0.5285420621902 1.0
Ag     2 -0.1905253513492 -0.5480827349569 -0.0440309352550 1.0
Ag     2  0.1902452214573  0.4688519327205  0.3807863809880 1.0
Ag     2  0.3033833434227  0.0086515431232  0.3841436955624 1.0
Ag     2  0.4750664083007 -0.2802222374602  0.1269354763889 1.0
END
