TITL 4Ag2Se_CONSTCUT-200811-083016-ded85a 0.0123 210.950234 -4.61178166E+004 0 0 12 (I4/mmm) n - 1
REM
REM Run started: Tue, 11 Aug 2020 09:42:12 +0100 in /lustre/scratch/uccabz1/launch_tmp/launcher_2020-08-11-07-30-14-377763
REM CASTEP 20.1 from code version af48c487+ pr-geom-scf-spinfix Tue Jun 2 15:39:59 2020 +0100
REM Functional PBE for solids (2008) Relativity Koelling-Harmon Dispersion off
REM Cut-off 300.0000 eV Grid scale 2.0000 Gmax 26.6208 1/A FBSC none
REM MP grid 4 4 3 Offset 0.000 0.000 0.000 No. kpts 8 Spacing 0.05
REM Total runtime: 5365.18 s
REM Overall efficiency: 97.4 %
REM
REM 4Ag2Se_CONSTCUT.cell (097ebf1fd09fb02df10c18b5c3809341)
REM
REM compiler GCC version 4.9.2
REM options -cpp -iprefix /lustre/shared/ucl/apps/gcc/4.9.2/bin/../lib/gcc/x86_64-unknown-linux-gnu/4.9.2/ -mtune=corei7 -march=x86-64 -g -Og
REM COMMAND_LINE
REM seed -1546099336 2042676983 -1529214313 2142584877 469586061 1832862543 -1460211455 -2049637951 -2028467857 -1226084872 1884331268 -1180137536
REM
REM Se 3|2.1|7|7|9|40:41:32(qc=5)
REM Ag 3|2.2|7|7|9|40U:50:41:42(qc=5)
REM 
CELL 1.54180    5.01212    5.01216    8.39719   90.00000   90.00000   90.00000
LATT -1
SFAC Se Ag 
Se     1 -0.1494293000000  0.2500000000000  0.2500000000000 1.0
Se     1 -0.1494293000000 -0.2500000000000 -0.2500000000000 1.0
Se     1  0.3505707000000 -0.2500000000000  0.2500000000000 1.0
Se     1  0.3505707000000  0.2500000000000 -0.2500000000000 1.0
Ag     2 -0.1494293000000  0.2498579273861 -0.0822340798155 1.0
Ag     2 -0.1494293000000 -0.2498579273861  0.0822340798155 1.0
Ag     2  0.3505707000000 -0.2498579273861 -0.0822340798155 1.0
Ag     2  0.3505707000000  0.2498579273861  0.0822340798155 1.0
Ag     2  0.3505707000000 -0.2501420726139 -0.4177659201845 1.0
Ag     2  0.3505707000000  0.2501420726139  0.4177659201845 1.0
Ag     2 -0.1494293000000  0.2501420726139 -0.4177659201845 1.0
Ag     2 -0.1494293000000 -0.2501420726139  0.4177659201845 1.0
END
