TITL 4Ag2Se_CONSTCUT-200811-070110-abe944 -0.0180 233.440730 -4.61184129E+004 0 0 12 (R3) n - 1
REM
REM Run started: Tue, 11 Aug 2020 10:43:12 +0100 in /lustre/scratch/uccabz1/launch_tmp/launcher_2020-08-11-06-01-08-260538
REM CASTEP 20.1 from code version af48c487+ pr-geom-scf-spinfix Tue Jun 2 15:39:59 2020 +0100
REM Functional PBE for solids (2008) Relativity Koelling-Harmon Dispersion off
REM Cut-off 300.0000 eV Grid scale 2.0000 Gmax 26.6208 1/A FBSC none
REM MP grid 4 4 4 Offset 0.000 0.000 0.000 No. kpts 12 Spacing 0.05
REM Total runtime: 13429.9 s
REM Overall efficiency: 86.6 %
REM
REM 4Ag2Se_CONSTCUT.cell (097ebf1fd09fb02df10c18b5c3809341)
REM
REM compiler GCC version 4.9.2
REM options -cpp -iprefix /lustre/shared/ucl/apps/gcc/4.9.2/bin/../lib/gcc/x86_64-unknown-linux-gnu/4.9.2/ -mtune=corei7 -march=x86-64 -g -Og
REM COMMAND_LINE
REM seed -1789189725 -1643896141 1873721015 1550190238 -1540329279 1584732749 -271871362 -1727477041 -289111135 -241943369 876818631 240040387
REM
REM Se 3|2.1|7|7|9|40:41:32(qc=5)
REM Ag 3|2.2|7|7|9|40U:50:41:42(qc=5)
REM 
CELL 1.54180    6.16705    6.16705    6.16705   93.15489   93.15489   93.15489
LATT -1
SFAC Se Ag 
Se     1  0.3535719149830 -0.0965723073600 -0.1988480515712 1.0
Se     1 -0.1988480515712  0.3535719149830 -0.0965723073600 1.0
Se     1 -0.0965723073600 -0.1988480515712  0.3535719149830 1.0
Se     1  0.4590421848489  0.4590421848489  0.4590421848489 1.0
Ag     2  0.1184788228471  0.4706548273546  0.1897732760691 1.0
Ag     2  0.1897732760691  0.1184788228471  0.4706548273546 1.0
Ag     2  0.4706548273546  0.1897732760691  0.1184788228471 1.0
Ag     2 -0.4820680814034 -0.2792269102796  0.1360543181518 1.0
Ag     2  0.1360543181518 -0.4820680814034 -0.2792269102796 1.0
Ag     2 -0.2792269102796  0.1360543181518 -0.4820680814034 1.0
Ag     2 -0.2475119903121 -0.2475119903121 -0.2475119903121 1.0
Ag     2  0.0308210966716  0.0308210966716  0.0308210966716 1.0
END
