TITL 4Ag2Se_CONSTCUT_NOSYM-200810-173433-6a24df 0.0828 218.041335 -4.61180687E+004 0 0 12 (Cm) n - 1
REM
REM Run started: Tue, 11 Aug 2020 02:29:18 +0100 in /lustre/scratch/uccabz1/launch_tmp/launcher_2020-08-10-16-34-31-293044
REM CASTEP 20.1 from code version af48c487+ pr-geom-scf-spinfix Tue Jun 2 15:39:59 2020 +0100
REM Functional PBE for solids (2008) Relativity Koelling-Harmon Dispersion off
REM Cut-off 300.0000 eV Grid scale 2.0000 Gmax 26.6208 1/A FBSC none
REM MP grid 6 5 2 Offset 0.000 0.000 0.000 No. kpts 30 Spacing 0.05
REM Total runtime: 32463.4 s
REM Overall efficiency: 89.7 %
REM
REM 4Ag2Se_CONSTCUT_NOSYM.cell (04f5f378ecb9f162ba8e0859c4ea5e99)
REM
REM compiler GCC version 4.9.2
REM options -cpp -iprefix /lustre/shared/ucl/apps/gcc/4.9.2/bin/../lib/gcc/x86_64-unknown-linux-gnu/4.9.2/ -mtune=corei7 -march=x86-64 -g -Og
REM COMMAND_LINE
REM seed -1196413479 1726084058 -98143878 -6942962 72282602 -2142234376 -2033172404 -477572177 1138379736 -1968712702 -1937563878 -1046176395
REM
REM Se 3|2.1|7|7|9|40:41:32(qc=5)
REM Ag 3|2.2|7|7|9|40U:50:41:42(qc=5)
REM 
CELL 1.54180    4.59324    4.83292   12.03374   78.53385   74.23703   58.22185
LATT -1
SFAC Se Ag 
Se     1  0.1312980646010  0.0277605403579  0.4119144662736 1.0
Se     1  0.3472020539993  0.1938703957136 -0.1402578866693 1.0
Se     1  0.2474212552540 -0.3951488664158  0.1357014406539 1.0
Se     1 -0.1765196799198 -0.4289570463966 -0.3568249570646 1.0
Ag     2  0.5113936693421  0.2546701111007 -0.4122806289435 1.0
Ag     2  0.1074562765785 -0.0974963309029 -0.3041974956948 1.0
Ag     2 -0.3638979591552 -0.4610872885130 -0.1207587394111 1.0
Ag     2 -0.4571059450453 -0.0735883770991  0.1973120536232 1.0
Ag     2  0.5554082211609  0.3551261619729  0.3279629956894 1.0
Ag     2 -0.1778867450199 -0.3193714207844  0.4123480190488 1.0
Ag     2 -0.0394174800192  0.2752073614162  0.0823966468359 1.0
Ag     2 -0.0951148317763 -0.1320325404493 -0.0479558143416 1.0
END
