TITL 4Ag2Se_CONSTCUT-200811-151639-ba6942 0.0223 230.044114 -4.61181123E+004 0 0 12 (Cc) n - 1
REM
REM Run started: Tue, 11 Aug 2020 21:31:09 +0100 in /lustre/scratch/uccabz1/launch_tmp/launcher_2020-08-11-14-16-37-445512
REM CASTEP 20.1 from code version af48c487+ pr-geom-scf-spinfix Tue Jun 2 15:39:59 2020 +0100
REM Functional PBE for solids (2008) Relativity Koelling-Harmon Dispersion off
REM Cut-off 300.0000 eV Grid scale 2.0000 Gmax 26.6208 1/A FBSC none
REM MP grid 5 3 3 Offset 0.000 0.000 0.000 No. kpts 23 Spacing 0.05
REM Total runtime: 22577.5 s
REM Overall efficiency: 80.8182 %
REM
REM 4Ag2Se_CONSTCUT.cell (097ebf1fd09fb02df10c18b5c3809341)
REM
REM compiler GCC version 4.9.2
REM options -cpp -iprefix /lustre/shared/ucl/apps/gcc/4.9.2/bin/../lib/gcc/x86_64-unknown-linux-gnu/4.9.2/ -mtune=corei7 -march=x86-64 -g -Og
REM COMMAND_LINE
REM seed 159385742 2103774896 1102009538 -945951544 1522977709 1590709151 -351563765 2089642246 -910776343 -699607137 929156995 1592633195
REM
REM Se 3|2.1|7|7|9|40:41:32(qc=5)
REM Ag 3|2.2|7|7|9|40U:50:41:42(qc=5)
REM 
CELL 1.54180    4.70972    7.08591    7.42342  101.10882  108.49492   90.00000
LATT -1
SFAC Se Ag 
Se     1 -0.1110567406591  0.2063682136828  0.1259595379775 1.0
Se     1  0.2370162786366 -0.2936317863172  0.1259595379775 1.0
Se     1 -0.4129527618378  0.4139903852948 -0.4728544389485 1.0
Se     1 -0.0599016771107 -0.0860096147052 -0.4728544389485 1.0
Ag     2 -0.2306130404317 -0.5386602628110 -0.1081943324885 1.0
Ag     2  0.1224187079433 -0.0386602628110 -0.1081943324885 1.0
Ag     2 -0.0018648752694 -0.4522152156915  0.3834352273347 1.0
Ag     2  0.3853001026041  0.0477847843085  0.3834352273347 1.0
Ag     2 -0.2997252893362 -0.1546068160083  0.0797839168738 1.0
Ag     2  0.3795092062099  0.3453931839917  0.0797839168738 1.0
Ag     2 -0.4962769899538 -0.2115662044668 -0.3345490107490 1.0
Ag     2  0.1617279792048  0.2884337955332 -0.3345490107490 1.0
END
