TITL 4Ag2Se_CONSTCUT_NOSYM-200810-194352-510ec5 -0.0162 217.310725 -4.61184553E+004 0 0 12 (P21/m) n - 1
REM
REM Run started: Tue, 11 Aug 2020 05:23:21 +0100 in /lustre/scratch/uccabz1/launch_tmp/launcher_2020-08-10-18-43-51-100594
REM CASTEP 20.1 from code version af48c487+ pr-geom-scf-spinfix Tue Jun 2 15:39:59 2020 +0100
REM Functional PBE for solids (2008) Relativity Koelling-Harmon Dispersion off
REM Cut-off 300.0000 eV Grid scale 2.0000 Gmax 26.6208 1/A FBSC none
REM MP grid 5 4 3 Offset 0.000 0.000 0.000 No. kpts 30 Spacing 0.05
REM Total runtime: 34880.2 s
REM Overall efficiency: 96.6923 %
REM
REM 4Ag2Se_CONSTCUT_NOSYM.cell (04f5f378ecb9f162ba8e0859c4ea5e99)
REM
REM compiler GCC version 4.9.2
REM options -cpp -iprefix /lustre/shared/ucl/apps/gcc/4.9.2/bin/../lib/gcc/x86_64-unknown-linux-gnu/4.9.2/ -mtune=corei7 -march=x86-64 -g -Og
REM COMMAND_LINE
REM seed -496919214 -1142605000 -781354238 900304140 -441610629 -678706908 2128622750 -749344009 -2007809565 -749998229 2070527202 -1292105802
REM
REM Se 3|2.1|7|7|9|40:41:32(qc=5)
REM Ag 3|2.2|7|7|9|40U:50:41:42(qc=5)
REM 
CELL 1.54180    4.31084    5.78735    8.71317   91.41905   89.94821   89.79523
LATT -1
SFAC Se Ag 
Se     1 -0.1081716876987  0.0889053037960 -0.4579403153423 1.0
Se     1  0.3862538834532  0.4401713572844  0.3364821894735 1.0
Se     1 -0.1135447965066  0.0700427566633  0.1339293763639 1.0
Se     1  0.3925047429832  0.4565853445695 -0.2553201854084 1.0
Ag     2  0.3882879269837 -0.1374996540416  0.0197482857902 1.0
Ag     2 -0.1135159324818 -0.3844598204862 -0.4828788595513 1.0
Ag     2 -0.1092472593156 -0.3361874331329 -0.1432344327414 1.0
Ag     2  0.3933889512608 -0.0857607332397  0.3612942429079 1.0
Ag     2  0.3862544066742  0.3729387367324  0.0355341114796 1.0
Ag     2 -0.1143813106676 -0.3806074109996  0.1940024822434 1.0
Ag     2  0.3919405609228 -0.0915940995585 -0.3159748050793 1.0
Ag     2 -0.1064025856076  0.1538250524127 -0.1569233901359 1.0
END
