TITL 4Ag2Se_CONSTCUT-200811-150456-a2dd9e 0.0461 225.986973 -4.61181987E+004 0 0 12 (C2/m) n - 1
REM
REM Run started: Tue, 11 Aug 2020 18:20:35 +0100 in /lustre/scratch/uccabz1/launch_tmp/launcher_2020-08-11-14-04-54-862606
REM CASTEP 20.1 from code version af48c487+ pr-geom-scf-spinfix Tue Jun 2 15:39:59 2020 +0100
REM Functional PBE for solids (2008) Relativity Koelling-Harmon Dispersion off
REM Cut-off 300.0000 eV Grid scale 2.0000 Gmax 26.6208 1/A FBSC none
REM MP grid 6 4 3 Offset 0.000 0.000 0.000 No. kpts 18 Spacing 0.05
REM Total runtime: 11981.6 s
REM Overall efficiency: 97.2857 %
REM
REM 4Ag2Se_CONSTCUT.cell (097ebf1fd09fb02df10c18b5c3809341)
REM
REM compiler GCC version 4.9.2
REM options -cpp -iprefix /lustre/shared/ucl/apps/gcc/4.9.2/bin/../lib/gcc/x86_64-unknown-linux-gnu/4.9.2/ -mtune=corei7 -march=x86-64 -g -Og
REM COMMAND_LINE
REM seed 1104994037 -1075880259 1831938503 898015591 720581033 74907146 1101548080 509102841 131796084 -876913860 -697722126 -1234684884
REM
REM Se 3|2.1|7|7|9|40:41:32(qc=5)
REM Ag 3|2.2|7|7|9|40U:50:41:42(qc=5)
REM 
CELL 1.54180    3.90734    6.58197    8.81350   94.43471   90.00000   90.00000
LATT -1
SFAC Se Ag 
Se     1  0.0239381000000 -0.2509312603224 -0.4116142243200 1.0
Se     1  0.0239381000000  0.2509312603224  0.4116142243200 1.0
Se     1 -0.4760619000000 -0.2509312603224  0.0883857756800 1.0
Se     1 -0.4760619000000  0.2509312603224 -0.0883857756800 1.0
Ag     2  0.0239381000000 -0.4365072842778 -0.1423169558437 1.0
Ag     2  0.0239381000000  0.4365072842778  0.1423169558437 1.0
Ag     2 -0.4760619000000  0.1380649212703  0.2029450788310 1.0
Ag     2 -0.4760619000000 -0.1380649212703 -0.2029450788310 1.0
Ag     2  0.0239381000000 -0.1380649212703  0.2970549211690 1.0
Ag     2  0.0239381000000  0.1380649212703 -0.2970549211690 1.0
Ag     2 -0.4760619000000  0.4365072842778 -0.3576830441563 1.0
Ag     2 -0.4760619000000 -0.4365072842778  0.3576830441563 1.0
END
