TITL 4Ag2Se_CONSTCUT-200811-053740-1a05a8 0.0167 234.206095 -4.61178262E+004 0 0 12 (P3) n - 1
REM
REM Run started: Tue, 11 Aug 2020 15:39:38 +0100 in /lustre/scratch/uccabz1/launch_tmp/launcher_2020-08-11-04-37-39-080883
REM CASTEP 20.1 from code version af48c487+ pr-geom-scf-spinfix Tue Jun 2 15:39:59 2020 +0100
REM Functional PBE for solids (2008) Relativity Koelling-Harmon Dispersion off
REM Cut-off 300.0000 eV Grid scale 2.0000 Gmax 26.6208 1/A FBSC none
REM MP grid 4 4 5 Offset 0.000 0.000 0.000 No. kpts 40 Spacing 0.05
REM Total runtime: 36285.1 s
REM Overall efficiency: 97.3636 %
REM
REM 4Ag2Se_CONSTCUT.cell (097ebf1fd09fb02df10c18b5c3809341)
REM
REM compiler GCC version 4.9.2
REM options -cpp -iprefix /lustre/shared/ucl/apps/gcc/4.9.2/bin/../lib/gcc/x86_64-unknown-linux-gnu/4.9.2/ -mtune=corei7 -march=x86-64 -g -Og
REM COMMAND_LINE
REM seed 1725522495 -1280571615 1598223105 479904438 1658714753 -1422560922 -1920143478 1918062504 48701475 1465888214 1925220262 997518512
REM
REM Se 3|2.1|7|7|9|40:41:32(qc=5)
REM Ag 3|2.2|7|7|9|40U:50:41:42(qc=5)
REM 
CELL 1.54180    7.59606    7.59606    4.68695   90.00000   90.00000  120.00000
LATT -1
SFAC Se Ag 
Se     1  0.3889798486477  0.2640763149336  0.0922661500884 1.0
Se     1 -0.1249034337141 -0.3889798486477  0.0922661500884 1.0
Se     1 -0.2640763149336  0.1249034337141  0.0922661500884 1.0
Se     1  0.3333333666667 -0.3333333666667 -0.3068948109187 1.0
Ag     2 -0.2183498980997  0.0042872796552 -0.3962065695726 1.0
Ag     2  0.2226372777549  0.2183498980997 -0.3962065695726 1.0
Ag     2 -0.0042872796552 -0.2226372777549 -0.3962065695726 1.0
Ag     2 -0.4226164645161 -0.3780964546833  0.3622255488717 1.0
Ag     2  0.0445201098328  0.4226164645161  0.3622255488717 1.0
Ag     2  0.3780964546833 -0.0445201098328  0.3622255488717 1.0
Ag     2 -0.3333333000000  0.3333333000000 -0.3486526160500 1.0
Ag     2  0.0000000333333 -0.0000000333333  0.1085233388061 1.0
END
