TITL 4Ag2Se_CONSTCUT_NOSYM-200810-191516-0519ed 0.0251 219.399320 -4.61185182E+004 0 0 12 (P-1) n - 1
REM
REM Run started: Tue, 11 Aug 2020 08:52:21 +0100 in /lustre/scratch/uccabz1/launch_tmp/launcher_2020-08-10-18-15-14-513037
REM CASTEP 20.1 from code version af48c487+ pr-geom-scf-spinfix Tue Jun 2 15:39:59 2020 +0100
REM Functional PBE for solids (2008) Relativity Koelling-Harmon Dispersion off
REM Cut-off 300.0000 eV Grid scale 2.0000 Gmax 26.6208 1/A FBSC none
REM MP grid 4 4 4 Offset 0.000 0.000 0.000 No. kpts 32 Spacing 0.05
REM Total runtime: 49216 s
REM Overall efficiency: 98.4167 %
REM
REM 4Ag2Se_CONSTCUT_NOSYM.cell (04f5f378ecb9f162ba8e0859c4ea5e99)
REM
REM compiler GCC version 4.9.2
REM options -cpp -iprefix /lustre/shared/ucl/apps/gcc/4.9.2/bin/../lib/gcc/x86_64-unknown-linux-gnu/4.9.2/ -mtune=corei7 -march=x86-64 -g -Og
REM COMMAND_LINE
REM seed 543808943 -2006774885 926988899 1377056793 1950553824 1920256624 -1840072534 -91989882 -2058281957 237072846 -655810308 1283295830
REM
REM Se 3|2.1|7|7|9|40:41:32(qc=5)
REM Ag 3|2.2|7|7|9|40U:50:41:42(qc=5)
REM 
CELL 1.54180    6.48779    6.67980    6.60165  119.82406   93.77506  111.64644
LATT -1
SFAC Se Ag 
Se     1 -0.1279298333984  0.0796907098357 -0.2317742954410 1.0
Se     1  0.0891093162366 -0.5520379943953 -0.4837676943991 1.0
Se     1  0.4652839776582  0.0893406422716  0.3469020382039 1.0
Se     1 -0.5026864377406 -0.5620547801442 -0.0597702263454 1.0
Ag     2  0.1134716772093 -0.3909281395597  0.0179081038029 1.0
Ag     2 -0.2201839155026  0.4260795651673  0.2193420962481 1.0
Ag     2 -0.1541167082901 -0.0797885554929  0.2673473308816 1.0
Ag     2 -0.5020203835440 -0.1311740911778 -0.1081285949394 1.0
Ag     2 -0.2257154990420 -0.3866792325069 -0.2823518005435 1.0
Ag     2  0.1810027081615  0.1004439215791  0.0669209429100 1.0
Ag     2  0.1851382408614 -0.0840778006457 -0.4307511613366 1.0
Ag     2  0.4603799573905 -0.3414402449313  0.3923465609584 1.0
END
