TITL 4Ag2Se_CONSTCUT_NOSYM-200810-165920-4c56be 0.0296 219.384890 -4.61184711E+004 0 0 12 (P-1) n - 1
REM
REM Run started: Tue, 11 Aug 2020 01:45:08 +0100 in /lustre/scratch/uccabz1/launch_tmp/launcher_2020-08-10-15-59-19-058041
REM CASTEP 20.1 from code version af48c487+ pr-geom-scf-spinfix Tue Jun 2 15:39:59 2020 +0100
REM Functional PBE for solids (2008) Relativity Koelling-Harmon Dispersion off
REM Cut-off 300.0000 eV Grid scale 2.0000 Gmax 26.6208 1/A FBSC none
REM MP grid 5 4 3 Offset 0.000 0.000 0.000 No. kpts 30 Spacing 0.05
REM Total runtime: 35150.3 s
REM Overall efficiency: 98.6667 %
REM
REM 4Ag2Se_CONSTCUT_NOSYM.cell (04f5f378ecb9f162ba8e0859c4ea5e99)
REM
REM compiler GCC version 4.9.2
REM options -cpp -iprefix /lustre/shared/ucl/apps/gcc/4.9.2/bin/../lib/gcc/x86_64-unknown-linux-gnu/4.9.2/ -mtune=corei7 -march=x86-64 -g -Og
REM COMMAND_LINE
REM seed 1408344714 1165250414 -546730364 -1247947771 1515736648 -274684610 306605367 -502061982 1138302155 -775749966 -1574171067 1778828098
REM
REM Se 3|2.1|7|7|9|40:41:32(qc=5)
REM Ag 3|2.2|7|7|9|40U:50:41:42(qc=5)
REM 
CELL 1.54180    4.60225    5.52619    8.69341   93.22451   94.29732   85.06910
LATT -1
SFAC Se Ag 
Se     1  0.1500085411683 -0.0250552039348 -0.3717334439080 1.0
Se     1 -0.4087072743456 -0.5977821515695  0.4514447185732 1.0
Se     1  0.1149516323961 -0.0111212427004  0.2135182512124 1.0
Se     1 -0.3714003447569  0.3820236456130 -0.1339723105125 1.0
Ag     2 -0.3653274379262 -0.0932464226218  0.4375501903022 1.0
Ag     2 -0.3771397765570 -0.2086975391534  0.1039582681216 1.0
Ag     2  0.1200699932970 -0.4246834654742 -0.0254241004531 1.0
Ag     2 -0.3186524188238 -0.1669378574415 -0.2362196329236 1.0
Ag     2  0.1169005861430  0.4715498598392 -0.3590546327154 1.0
Ag     2 -0.4275339200929  0.3031583572998  0.1566812764380 1.0
Ag     2  0.1716093541091  0.0636338582243 -0.0772502496029 1.0
Ag     2  0.0605224653888 -0.4612941380806  0.3154790654680 1.0
END
