TITL 4Ag2Se_CONSTCUT-200811-083728-47585d -0.0144 227.534193 -4.61175168E+004 0 0 12 (P3) n - 1
REM
REM Run started: Tue, 11 Aug 2020 11:55:23 +0100 in /lustre/scratch/uccabz1/launch_tmp/launcher_2020-08-11-07-37-27-222214
REM CASTEP 20.1 from code version af48c487+ pr-geom-scf-spinfix Tue Jun 2 15:39:59 2020 +0100
REM Functional PBE for solids (2008) Relativity Koelling-Harmon Dispersion off
REM Cut-off 300.0000 eV Grid scale 2.0000 Gmax 26.6208 1/A FBSC none
REM MP grid 4 4 4 Offset 0.000 0.000 0.000 No. kpts 32 Spacing 0.05
REM Total runtime: 12014 s
REM Overall efficiency: 97.1667 %
REM
REM 4Ag2Se_CONSTCUT.cell (097ebf1fd09fb02df10c18b5c3809341)
REM
REM compiler GCC version 4.9.2
REM options -cpp -iprefix /lustre/shared/ucl/apps/gcc/4.9.2/bin/../lib/gcc/x86_64-unknown-linux-gnu/4.9.2/ -mtune=corei7 -march=x86-64 -g -Og
REM COMMAND_LINE
REM seed -700921023 78684259 -2002566630 141275693 -58643252 800057985 239146574 1939386974 642358045 1611721951 -447922486 1758500338
REM
REM Se 3|2.1|7|7|9|40:41:32(qc=5)
REM Ag 3|2.2|7|7|9|40U:50:41:42(qc=5)
REM 
CELL 1.54180    5.32174    7.02637    7.02637  120.00000   90.00000   90.00000
LATT -1
SFAC Se Ag 
Se     1 -0.4331218253268  0.2884672464991  0.0225510419447 1.0
Se     1 -0.4331218253268 -0.0225510419447  0.2659161045544 1.0
Se     1 -0.4331218253268 -0.2659161045544 -0.2884672464991 1.0
Se     1  0.0954135721603  0.3333333666667 -0.3333333666667 1.0
Ag     2 -0.1496290230413 -0.3791953650887  0.0673607357582 1.0
Ag     2 -0.1496290230413 -0.0673607357582 -0.4465562008469 1.0
Ag     2 -0.1496290230413  0.4465562008469  0.3791953650887 1.0
Ag     2  0.0864757408126  0.2201693020685 -0.0187490921046 1.0
Ag     2  0.0864757408126  0.0187490921046  0.2389182941731 1.0
Ag     2  0.0864757408126 -0.2389182941731 -0.2201693020685 1.0
Ag     2 -0.4160662762601  0.3333333666667 -0.3333333666667 1.0
Ag     2  0.3027226267665 -0.3333333000000  0.3333333000000 1.0
END
