TITL 4Ag2Se_CONSTCUT_NOSYM-200810-180405-16b4fa 0.0942 216.035580 -4.61185679E+004 0 0 12 (P1) n - 1
REM
REM Run started: Tue, 11 Aug 2020 03:53:24 +0100 in /lustre/scratch/uccabz1/launch_tmp/launcher_2020-08-10-17-04-03-225142
REM CASTEP 20.1 from code version af48c487+ pr-geom-scf-spinfix Tue Jun 2 15:39:59 2020 +0100
REM Functional PBE for solids (2008) Relativity Koelling-Harmon Dispersion off
REM Cut-off 300.0000 eV Grid scale 2.0000 Gmax 26.6208 1/A FBSC none
REM MP grid 5 5 2 Offset 0.000 0.000 0.000 No. kpts 25 Spacing 0.05
REM Total runtime: 37746.1 s
REM Overall efficiency: 90 %
REM
REM 4Ag2Se_CONSTCUT_NOSYM.cell (04f5f378ecb9f162ba8e0859c4ea5e99)
REM
REM compiler GCC version 4.9.2
REM options -cpp -iprefix /lustre/shared/ucl/apps/gcc/4.9.2/bin/../lib/gcc/x86_64-unknown-linux-gnu/4.9.2/ -mtune=corei7 -march=x86-64 -g -Og
REM COMMAND_LINE
REM seed -126064599 -1292850734 -1683943077 958068581 -1670644768 1547109202 -465827670 -631834058 1693573570 1149485515 -695538981 1708944797
REM
REM Se 3|2.1|7|7|9|40:41:32(qc=5)
REM Ag 3|2.2|7|7|9|40U:50:41:42(qc=5)
REM 
CELL 1.54180    4.09386    4.11523   12.83364   88.24155   88.51672   89.80857
LATT -1
SFAC Se Ag 
Se     1  0.4761434258199 -0.2277257988769 -0.2827344352758 1.0
Se     1 -0.0008322984438  0.3229323114082  0.4243582549977 1.0
Se     1  0.2233546416429  0.2526880980864 -0.0766628495687 1.0
Se     1 -0.2946128027548 -0.2515647981362  0.2175750575103 1.0
Ag     2 -0.2337373011932 -0.2579083048754 -0.0972428399090 1.0
Ag     2 -0.5392187703427  0.3057763994658 -0.4274237270355 1.0
Ag     2  0.4781029783218 -0.1556680518404  0.4096546892744 1.0
Ag     2 -0.2590123133527  0.2462855890107  0.0727322722341 1.0
Ag     2 -0.0370236300331 -0.1924686941846 -0.4297684074385 1.0
Ag     2  0.2307641945984  0.2396313676141  0.2313875271386 1.0
Ag     2  0.2455879299974 -0.2550660080945  0.0685543742845 1.0
Ag     2 -0.0561268542602  0.2671606904229 -0.2650674162120 1.0
END
