TITL 4Ag2Se_CONSTCUT_NOSYM-200810-184919-ccd976 -0.0231 213.540183 -4.61184661E+004 0 0 12 (P212121) n - 1
REM
REM Run started: Tue, 11 Aug 2020 02:51:14 +0100 in /lustre/scratch/uccabz1/launch_tmp/launcher_2020-08-10-17-49-17-641450
REM CASTEP 20.1 from code version af48c487+ pr-geom-scf-spinfix Tue Jun 2 15:39:59 2020 +0100
REM Functional PBE for solids (2008) Relativity Koelling-Harmon Dispersion off
REM Cut-off 300.0000 eV Grid scale 2.0000 Gmax 26.6208 1/A FBSC none
REM MP grid 5 4 3 Offset 0.000 0.000 0.000 No. kpts 30 Spacing 0.05
REM Total runtime: 29169.7 s
REM Overall efficiency: 97.8182 %
REM
REM 4Ag2Se_CONSTCUT_NOSYM.cell (04f5f378ecb9f162ba8e0859c4ea5e99)
REM
REM compiler GCC version 4.9.2
REM options -cpp -iprefix /lustre/shared/ucl/apps/gcc/4.9.2/bin/../lib/gcc/x86_64-unknown-linux-gnu/4.9.2/ -mtune=corei7 -march=x86-64 -g -Og
REM COMMAND_LINE
REM seed -2006630692 -1069177648 414921475 -1196276095 896347628 -1438960964 -1298704477 686738707 -999917472 -532406698 1975852600 1706023956
REM
REM Se 3|2.1|7|7|9|40:41:32(qc=5)
REM Ag 3|2.2|7|7|9|40U:50:41:42(qc=5)
REM 
CELL 1.54180    4.17641    5.96536    8.57117   89.99511   90.04938   90.02494
LATT -1
SFAC Se Ag 
Se     1  0.1933551591769 -0.2823117700958  0.3522943545738 1.0
Se     1  0.6938180301903  0.3679197634233  0.1360591886231 1.0
Se     1 -0.1969756485468 -0.1317107613168 -0.1478856643692 1.0
Se     1  0.3042760740082  0.2181554803898 -0.3635735094605 1.0
Ag     2  0.2432571195978 -0.3582580390009  0.0112806589184 1.0
Ag     2 -0.2732587614428 -0.0967681337678  0.1728212255129 1.0
Ag     2  0.2678239892685 -0.3179115216970 -0.3275745317162 1.0
Ag     2 -0.2462362529282 -0.0553277414222  0.5107981880504 1.0
Ag     2  0.2536199462586  0.1408592175695 -0.0222132508433 1.0
Ag     2 -0.2307964412469  0.4036569051818 -0.1834500898509 1.0
Ag     2 -0.2567319283082  0.4443314106506  0.4775543734736 1.0
Ag     2  0.2282800139725  0.1820873900855  0.3156269570880 1.0
END
