TITL 4Ag2Se_CONSTCUT-200811-082334-815df8 0.0266 224.566239 -4.61181285E+004 0 0 12 (Pbcm) n - 1
REM
REM Run started: Tue, 11 Aug 2020 10:36:11 +0100 in /lustre/scratch/uccabz1/launch_tmp/launcher_2020-08-11-07-23-32-004368
REM CASTEP 20.1 from code version af48c487+ pr-geom-scf-spinfix Tue Jun 2 15:39:59 2020 +0100
REM Functional PBE for solids (2008) Relativity Koelling-Harmon Dispersion off
REM Cut-off 300.0000 eV Grid scale 2.0000 Gmax 26.6208 1/A FBSC none
REM MP grid 5 4 3 Offset 0.000 0.000 0.000 No. kpts 12 Spacing 0.05
REM Total runtime: 8027.57 s
REM Overall efficiency: 85.5714 %
REM
REM 4Ag2Se_CONSTCUT.cell (097ebf1fd09fb02df10c18b5c3809341)
REM
REM compiler GCC version 4.9.2
REM options -cpp -iprefix /lustre/shared/ucl/apps/gcc/4.9.2/bin/../lib/gcc/x86_64-unknown-linux-gnu/4.9.2/ -mtune=corei7 -march=x86-64 -g -Og
REM COMMAND_LINE
REM seed 1383679650 -1521034507 249302540 75591320 -1755925516 -1043474888 -1927118255 1444504804 -307523606 1522473114 1518012059 -249297817
REM
REM Se 3|2.1|7|7|9|40:41:32(qc=5)
REM Ag 3|2.2|7|7|9|40U:50:41:42(qc=5)
REM 
CELL 1.54180    4.73864    6.18033    7.66795   90.00000   90.00000   90.00000
LATT -1
SFAC Se Ag 
Se     1 -0.3375130582887 -0.0054673405835 -0.2519422944863 1.0
Se     1  0.1624869417113  0.0054673405835  0.2519422944863 1.0
Se     1 -0.3375130582887  0.4945326594165  0.2519422944863 1.0
Se     1  0.1624869417113 -0.4945326594165 -0.2519422944863 1.0
Ag     2 -0.3388135874849  0.1085353406043  0.0794380034302 1.0
Ag     2  0.1611864125151 -0.1085353406043 -0.0794380034302 1.0
Ag     2 -0.3388135874849 -0.3914646593957 -0.0794380034302 1.0
Ag     2  0.1611864125151  0.3914646593957  0.0794380034302 1.0
Ag     2  0.1587286457736  0.1092014397970 -0.4138012340909 1.0
Ag     2 -0.3412713542264 -0.1092014397970  0.4138012340909 1.0
Ag     2  0.1587286457736 -0.3907985602030  0.4138012340909 1.0
Ag     2 -0.3412713542264  0.3907985602030 -0.4138012340909 1.0
END
