TITL 4Ag2Se_CONSTCUT-200811-063752-3e27f8 0.0016 211.097114 -4.61178104E+004 0 0 12 (I4/mmm) n - 1
REM
REM Run started: Tue, 11 Aug 2020 07:51:19 +0100 in /lustre/scratch/uccabz1/launch_tmp/launcher_2020-08-11-05-37-51-161538
REM CASTEP 20.1 from code version af48c487+ pr-geom-scf-spinfix Tue Jun 2 15:39:59 2020 +0100
REM Functional PBE for solids (2008) Relativity Koelling-Harmon Dispersion off
REM Cut-off 300.0000 eV Grid scale 2.0000 Gmax 26.6208 1/A FBSC none
REM MP grid 4 4 3 Offset 0.000 0.000 0.000 No. kpts 8 Spacing 0.05
REM Total runtime: 5084.83 s
REM Overall efficiency: 97.6 %
REM
REM 4Ag2Se_CONSTCUT.cell (097ebf1fd09fb02df10c18b5c3809341)
REM
REM compiler GCC version 4.9.2
REM options -cpp -iprefix /lustre/shared/ucl/apps/gcc/4.9.2/bin/../lib/gcc/x86_64-unknown-linux-gnu/4.9.2/ -mtune=corei7 -march=x86-64 -g -Og
REM COMMAND_LINE
REM seed -2130460593 -1894534541 -340647304 2113404902 -2078497601 2055261247 798596475 1600959115 -1087730318 -1767404151 1098644693 -1224314781
REM
REM Se 3|2.1|7|7|9|40:41:32(qc=5)
REM Ag 3|2.2|7|7|9|40U:50:41:42(qc=5)
REM 
CELL 1.54180    5.01583    5.01583    8.39065   90.00000   90.00000   90.00000
LATT -1
SFAC Se Ag 
Se     1  0.2508939265859 -0.2511110505248 -0.2501609511198 1.0
Se     1 -0.2508939265859  0.2511110505248 -0.2501609511198 1.0
Se     1  0.2511110505248  0.2508939265859  0.2501609511198 1.0
Se     1 -0.2511110505248 -0.2508939265859  0.2501609511198 1.0
Ag     2 -0.2571481711360 -0.2412418576774 -0.4179720591901 1.0
Ag     2  0.2571481711360  0.2412418576774 -0.4179720591901 1.0
Ag     2  0.2412418576774 -0.2571481711360  0.4179720591901 1.0
Ag     2 -0.2412418576774  0.2571481711360  0.4179720591901 1.0
Ag     2  0.2561190413467 -0.2438965477197  0.0820774052157 1.0
Ag     2 -0.2561190413467  0.2438965477197  0.0820774052157 1.0
Ag     2  0.2438965477197  0.2561190413467 -0.0820774052157 1.0
Ag     2 -0.2438965477197 -0.2561190413467 -0.0820774052157 1.0
END
