TITL 4Ag2Se_CONSTCUT_NOSYM-200810-191516-ae5caf 0.1572 219.965677 -4.61183659E+004 0 0 12 (P1) n - 1
REM
REM Run started: Tue, 11 Aug 2020 05:57:52 +0100 in /lustre/scratch/uccabz1/launch_tmp/launcher_2020-08-10-18-15-14-411416
REM CASTEP 20.1 from code version af48c487+ pr-geom-scf-spinfix Tue Jun 2 15:39:59 2020 +0100
REM Functional PBE for solids (2008) Relativity Koelling-Harmon Dispersion off
REM Cut-off 300.0000 eV Grid scale 2.0000 Gmax 26.6208 1/A FBSC none
REM MP grid 5 4 3 Offset 0.000 0.000 0.000 No. kpts 30 Spacing 0.05
REM Total runtime: 42634 s
REM Overall efficiency: 93 %
REM
REM 4Ag2Se_CONSTCUT_NOSYM.cell (04f5f378ecb9f162ba8e0859c4ea5e99)
REM
REM compiler GCC version 4.9.2
REM options -cpp -iprefix /lustre/shared/ucl/apps/gcc/4.9.2/bin/../lib/gcc/x86_64-unknown-linux-gnu/4.9.2/ -mtune=corei7 -march=x86-64 -g -Og
REM COMMAND_LINE
REM seed -605062903 1454565720 -864147209 1162840345 -742224221 787765570 -1117903010 -1477843027 -1903389706 -1767855909 2123753724 -215312115
REM
REM Se 3|2.1|7|7|9|40:41:32(qc=5)
REM Ag 3|2.2|7|7|9|40U:50:41:42(qc=5)
REM 
CELL 1.54180    4.63919    6.53523    8.37566   61.73976   80.35485   88.93454
LATT -1
SFAC Se Ag 
Se     1 -0.3315660104666  0.0469171425256  0.3499589756521 1.0
Se     1 -0.1926552321813  0.1948858740205 -0.2436484413235 1.0
Se     1  0.3040203087747 -0.4273596357777 -0.2338431058917 1.0
Se     1  0.3761541552952 -0.3682508265289  0.1687484197218 1.0
Ag     2  0.3022668963419 -0.0190623440784 -0.2120720500054 1.0
Ag     2  0.1299855606915  0.2216721357201  0.4324632942325 1.0
Ag     2 -0.1103172353087 -0.1277349367422  0.1148930518698 1.0
Ag     2 -0.1892013415499 -0.2083912457234 -0.2734046029324 1.0
Ag     2 -0.0948220398161 -0.5670879375175  0.0716848369463 1.0
Ag     2 -0.5942632169391  0.1712577351920  0.0489301787191 1.0
Ag     2 -0.3970780808365  0.4811062877730  0.4683568355769 1.0
Ag     2  0.1359139359948 -0.2350617488631  0.4250091074346 1.0
END
