TITL 4Ag2Se_CONSTCUT-200811-045548-a7bcda -0.0309 243.535847 -4.61173862E+004 0 0 12 (Fmm2) n - 1
REM
REM Run started: Tue, 11 Aug 2020 06:26:28 +0100 in /lustre/scratch/uccabz1/launch_tmp/launcher_2020-08-11-03-55-46-785064
REM CASTEP 20.1 from code version af48c487+ pr-geom-scf-spinfix Tue Jun 2 15:39:59 2020 +0100
REM Functional PBE for solids (2008) Relativity Koelling-Harmon Dispersion off
REM Cut-off 300.0000 eV Grid scale 2.0000 Gmax 26.6208 1/A FBSC none
REM MP grid 5 4 3 Offset 0.000 0.000 0.000 No. kpts 18 Spacing 0.05
REM Total runtime: 5833.85 s
REM Overall efficiency: 94.8 %
REM
REM 4Ag2Se_CONSTCUT.cell (097ebf1fd09fb02df10c18b5c3809341)
REM
REM compiler GCC version 4.9.2
REM options -cpp -iprefix /lustre/shared/ucl/apps/gcc/4.9.2/bin/../lib/gcc/x86_64-unknown-linux-gnu/4.9.2/ -mtune=corei7 -march=x86-64 -g -Og
REM COMMAND_LINE
REM seed -154221406 1624954904 1021674145 48929271 2085452114 1898673565 -724751547 151321159 -832273427 440710767 1165107086 -586659221
REM
REM Se 3|2.1|7|7|9|40:41:32(qc=5)
REM Ag 3|2.2|7|7|9|40U:50:41:42(qc=5)
REM 
CELL 1.54180    4.74772    7.51690    7.79057  118.84463   90.00000   90.00000
LATT -1
SFAC Se Ag 
Se     1 -0.2500000000000  0.4503773330573  0.2529784409914 1.0
Se     1  0.2500000000000  0.1973987920658 -0.2529786409914 1.0
Se     1 -0.2500000000000 -0.3026012079342 -0.2529786409914 1.0
Se     1  0.2500000000000 -0.0496226669427  0.2529784409914 1.0
Ag     2  0.2500000000000  0.5315229472984 -0.2889658976520 1.0
Ag     2 -0.2500000000000 -0.1795112550496  0.2889656976520 1.0
Ag     2  0.2500000000000  0.3204887449504  0.2889656976520 1.0
Ag     2 -0.2500000000000  0.0315229472984 -0.2889658976520 1.0
Ag     2  0.2500000000000 -0.0435864012777 -0.0988338851835 1.0
Ag     2 -0.2500000000000  0.0552473839058  0.0988336851835 1.0
Ag     2  0.2500000000000 -0.4447526160942  0.0988336851835 1.0
Ag     2 -0.2500000000000  0.4564135987223 -0.0988338851835 1.0
END
