TITL 4Ag2Se_CONSTCUT_NOSYM-200810-163308-fd5c5a 0.6977 211.382142 -4.61181559E+004 0 0 12 (P1) n - 1
REM
REM Run started: Tue, 11 Aug 2020 03:24:35 +0100 in /lustre/scratch/uccabz1/launch_tmp/launcher_2020-08-10-15-33-06-898344
REM CASTEP 20.1 from code version af48c487+ pr-geom-scf-spinfix Tue Jun 2 15:39:59 2020 +0100
REM Functional PBE for solids (2008) Relativity Koelling-Harmon Dispersion off
REM Cut-off 300.0000 eV Grid scale 2.0000 Gmax 26.6208 1/A FBSC none
REM MP grid 4 4 4 Offset 0.000 0.000 0.000 No. kpts 32 Spacing 0.05
REM Total runtime: 43770.1 s
REM Overall efficiency: 98.75 %
REM
REM 4Ag2Se_CONSTCUT_NOSYM.cell (04f5f378ecb9f162ba8e0859c4ea5e99)
REM
REM compiler GCC version 4.9.2
REM options -cpp -iprefix /lustre/shared/ucl/apps/gcc/4.9.2/bin/../lib/gcc/x86_64-unknown-linux-gnu/4.9.2/ -mtune=corei7 -march=x86-64 -g -Og
REM COMMAND_LINE
REM seed 2041003476 -534010755 643967773 913299053 1539729388 -1566519969 -366464900 -1892128485 843228685 -385007727 -2054670295 657885106
REM
REM Se 3|2.1|7|7|9|40:41:32(qc=5)
REM Ag 3|2.2|7|7|9|40U:50:41:42(qc=5)
REM 
CELL 1.54180    5.58786    5.89518    6.84795   76.11313   94.05388   76.86794
LATT -1
SFAC Se Ag 
Se     1  0.0638679621583 -0.0099391109000  0.5014301632232 1.0
Se     1 -0.4054297156391 -0.0907464704791  0.1168601977429 1.0
Se     1  0.2000015153668  0.4361091828476  0.1470511639540 1.0
Se     1 -0.2556529231870  0.3401163456497 -0.2352113792665 1.0
Ag     2 -0.1322284510232 -0.2487471710850 -0.1856990657939 1.0
Ag     2  0.2748287519622  0.2493362511784 -0.2176302852632 1.0
Ag     2 -0.2750212678755  0.3752931313436  0.1680780622180 1.0
Ag     2  0.0708277369075 -0.0406372085663  0.0957819223891 1.0
Ag     2  0.5217144772524  0.0664972295775  0.4796311462749 1.0
Ag     2  0.4202542086745 -0.4018084276631  0.4354145923395 1.0
Ag     2  0.3799143075768 -0.2865634060474 -0.1667187150146 1.0
Ag     2 -0.0702054021737 -0.4158809458557  0.4494592971966 1.0
END
