TITL 4Ag2Se_CONSTCUT_NOSYM-200810-183700-f30ca2 -0.3627 229.009661 -4.61176843E+004 0 0 12 (P1) n - 1
REM
REM Run started: Tue, 11 Aug 2020 07:10:25 +0100 in /lustre/scratch/uccabz1/launch_tmp/launcher_2020-08-10-18-29-51-230392
REM CASTEP 20.1 from code version af48c487+ pr-geom-scf-spinfix Tue Jun 2 15:39:59 2020 +0100
REM Functional PBE for solids (2008) Relativity Koelling-Harmon Dispersion off
REM Cut-off 300.0000 eV Grid scale 2.0000 Gmax 26.6208 1/A FBSC none
REM MP grid 5 6 2 Offset 0.000 0.000 0.000 No. kpts 30 Spacing 0.05
REM Total runtime: 46045.8 s
REM Overall efficiency: 98.25 %
REM
REM
REM
REM compiler GCC version 4.9.2
REM options -cpp -iprefix /lustre/shared/ucl/apps/gcc/4.9.2/bin/../lib/gcc/x86_64-unknown-linux-gnu/4.9.2/ -mtune=corei7 -march=x86-64 -g -Og
REM COMMAND_LINE
REM seed 824333151 710946891 1822544869 -765927762 -683941185 741519005 -1946585194 1519592236 -781280570 1931696561 -398654168 -1909592796
REM
REM Se 3|2.1|7|7|9|40:41:32(qc=5)
REM Ag 3|2.2|7|7|9|40U:50:41:42(qc=5)
REM 
CELL 1.54180    4.04617    4.05434   14.59750  106.58639   93.36719   90.62217
LATT -1
SFAC Se Ag 
Se     1 -0.2075051784126 -0.0830714218909  0.0747407010526 1.0
Se     1  0.0709424940837  0.2812898228115  0.2253698973242 1.0
Se     1 -0.3008128458259 -0.2707444947284 -0.3544395350833 1.0
Se     1  0.2400991372491  0.5257287386613 -0.0833712139160 1.0
Ag     2  0.1820572840178  0.2337288806350 -0.3542165418136 1.0
Ag     2  0.1176223315175 -0.0680216021768  0.3528438623820 1.0
Ag     2 -0.3530161400448  0.0794865992378 -0.5045285120566 1.0
Ag     2  0.2125808315672 -0.1018175281332 -0.2018121587415 1.0
Ag     2  0.3754189756801 -0.5700471265540  0.0879607569316 1.0
Ag     2  0.1509810262765 -0.4196332991451 -0.5045853001081 1.0
Ag     2 -0.3853455736884 -0.5637148365892  0.3525313744504 1.0
Ag     2 -0.2899573424202  0.3894162678720 -0.2038693304214 1.0
END
