TITL 4Ag2Se_CONSTCUT-200811-052533-727720 -0.0123 215.942434 -4.61178113E+004 0 0 12 (C2/m) n - 1
REM
REM Run started: Tue, 11 Aug 2020 13:42:55 +0100 in /lustre/scratch/uccabz1/launch_tmp/launcher_2020-08-11-04-25-31-042016
REM CASTEP 20.1 from code version af48c487+ pr-geom-scf-spinfix Tue Jun 2 15:39:59 2020 +0100
REM Functional PBE for solids (2008) Relativity Koelling-Harmon Dispersion off
REM Cut-off 300.0000 eV Grid scale 2.0000 Gmax 26.6208 1/A FBSC none
REM MP grid 7 3 3 Offset 0.000 0.000 0.000 No. kpts 32 Spacing 0.05
REM Total runtime: 29960.9 s
REM Overall efficiency: 97.4 %
REM
REM 4Ag2Se_CONSTCUT.cell (097ebf1fd09fb02df10c18b5c3809341)
REM
REM compiler GCC version 4.9.2
REM options -cpp -iprefix /lustre/shared/ucl/apps/gcc/4.9.2/bin/../lib/gcc/x86_64-unknown-linux-gnu/4.9.2/ -mtune=corei7 -march=x86-64 -g -Og
REM COMMAND_LINE
REM seed 1648697162 1105684567 -371715696 197015893 1150256910 352413617 -591988841 939606123 -360024858 1526171385 -361443567 599367839
REM
REM Se 3|2.1|7|7|9|40:41:32(qc=5)
REM Ag 3|2.2|7|7|9|40U:50:41:42(qc=5)
REM 
CELL 1.54180    3.11955    7.48995    9.84737   72.06545   81.00347   89.93569
LATT -1
SFAC Se Ag 
Se     1  0.1631208117393  0.3961367163065  0.1716815495461 1.0
Se     1 -0.1631208117393 -0.3961367163065 -0.1716815495461 1.0
Se     1  0.3426200227892  0.1311191481839 -0.1841913474330 1.0
Se     1 -0.3426200227892 -0.1311191481839  0.1841913474330 1.0
Ag     2  0.4282257437303 -0.1126658871194 -0.3530934693586 1.0
Ag     2 -0.4282257437303  0.1126658871194  0.3530934693586 1.0
Ag     2 -0.4286752832825  0.5024650583749  0.3594286182505 1.0
Ag     2  0.4286752832825 -0.5024650583749 -0.3594286182505 1.0
Ag     2 -0.0303172485213  0.2213885538487 -0.4384795516567 1.0
Ag     2  0.0303172485213 -0.2213885538487  0.4384795516567 1.0
Ag     2  0.2568291858312 -0.2344237235358 -0.0124081881986 1.0
Ag     2 -0.2568291858312  0.2344237235358  0.0124081881986 1.0
END
