TITL 4Ag2Se_CONSTCUT-200811-151732-fab5d3 0.0131 230.606037 -4.61171686E+004 0 0 12 (P3) n - 1
REM
REM Run started: Tue, 11 Aug 2020 18:39:14 +0100 in /lustre/scratch/uccabz1/launch_tmp/launcher_2020-08-11-14-17-30-527292
REM CASTEP 20.1 from code version af48c487+ pr-geom-scf-spinfix Tue Jun 2 15:39:59 2020 +0100
REM Functional PBE for solids (2008) Relativity Koelling-Harmon Dispersion off
REM Cut-off 300.0000 eV Grid scale 2.0000 Gmax 26.6208 1/A FBSC none
REM MP grid 4 4 4 Offset 0.000 0.000 0.000 No. kpts 32 Spacing 0.05
REM Total runtime: 12398.6 s
REM Overall efficiency: 97.5714 %
REM
REM 4Ag2Se_CONSTCUT.cell (097ebf1fd09fb02df10c18b5c3809341)
REM
REM compiler GCC version 4.9.2
REM options -cpp -iprefix /lustre/shared/ucl/apps/gcc/4.9.2/bin/../lib/gcc/x86_64-unknown-linux-gnu/4.9.2/ -mtune=corei7 -march=x86-64 -g -Og
REM COMMAND_LINE
REM seed 325022516 536010006 1118784740 -955893956 -916466590 713040492 -1003575125 -1486693294 -1718141279 465934164 526855358 3355338
REM
REM Se 3|2.1|7|7|9|40:41:32(qc=5)
REM Ag 3|2.2|7|7|9|40U:50:41:42(qc=5)
REM 
CELL 1.54180    7.02260    7.02260    5.39939   90.00000   90.00000  120.00000
LATT -1
SFAC Se Ag 
Se     1  0.3470146217472  0.3610982943161 -0.4766240873615 1.0
Se     1 -0.3610982943161 -0.0140835725689 -0.4766240873615 1.0
Se     1  0.0140835725689 -0.3470146217472 -0.4766240873615 1.0
Se     1  0.3333333000000 -0.3333333000000  0.0734704672885 1.0
Ag     2 -0.2459597266426 -0.0309080204520  0.0831046756294 1.0
Ag     2  0.0309080204520 -0.2150516061905  0.0831046756294 1.0
Ag     2  0.2150516061905  0.2459597266426  0.0831046756294 1.0
Ag     2 -0.0713207863782  0.3495282059430 -0.1724081204617 1.0
Ag     2 -0.3495282059430 -0.4208488923213 -0.1724081204617 1.0
Ag     2  0.4208488923213  0.0713207863782 -0.1724081204617 1.0
Ag     2 -0.0000000333333  0.0000000333333 -0.3560873539135 1.0
Ag     2 -0.3333333666667  0.3333333666667  0.2551421832063 1.0
END
