TITL 4Ag2Se_CONSTCUT-200811-042300-f1f9f0 -0.0199 218.412633 -4.61179972E+004 0 0 12 (R3m) n - 1
REM
REM Run started: Tue, 11 Aug 2020 06:40:17 +0100 in /lustre/scratch/uccabz1/launch_tmp/launcher_2020-08-11-03-22-58-176099
REM CASTEP 20.1 from code version af48c487+ pr-geom-scf-spinfix Tue Jun 2 15:39:59 2020 +0100
REM Functional PBE for solids (2008) Relativity Koelling-Harmon Dispersion off
REM Cut-off 300.0000 eV Grid scale 2.0000 Gmax 26.6208 1/A FBSC none
REM MP grid 4 4 4 Offset 0.000 0.000 0.000 No. kpts 12 Spacing 0.05
REM Total runtime: 8308.31 s
REM Overall efficiency: 84.125 %
REM
REM 4Ag2Se_CONSTCUT.cell (097ebf1fd09fb02df10c18b5c3809341)
REM
REM compiler GCC version 4.9.2
REM options -cpp -iprefix /lustre/shared/ucl/apps/gcc/4.9.2/bin/../lib/gcc/x86_64-unknown-linux-gnu/4.9.2/ -mtune=corei7 -march=x86-64 -g -Og
REM COMMAND_LINE
REM seed -1357561786 967650511 -1573143900 -1146879962 854900392 64974524 -1060266219 -33106241 -1468688537 -2088439687 -2096839762 -1485004509
REM
REM Se 3|2.1|7|7|9|40:41:32(qc=5)
REM Ag 3|2.2|7|7|9|40U:50:41:42(qc=5)
REM 
CELL 1.54180    6.12425    6.12425    6.12425   99.75515   99.75515   99.75515
LATT -1
SFAC Se Ag 
Se     1  0.4547185037826  0.0117489732937  0.4549257373105 1.0
Se     1  0.0117489732937  0.4549257373105  0.4547185037826 1.0
Se     1  0.4549257373105  0.4547185037826  0.0117489732937 1.0
Se     1 -0.1610488287295 -0.1610488287295 -0.1610488287295 1.0
Ag     2  0.1234357815879 -0.3294513305516  0.1236501989466 1.0
Ag     2 -0.3294513305516  0.1236501989466  0.1234357815879 1.0
Ag     2  0.1236501989466  0.1234357815879 -0.3294513305516 1.0
Ag     2 -0.2109393264070  0.3492810173480 -0.2127509247363 1.0
Ag     2  0.3492810173480 -0.2127509247363 -0.2109393264070 1.0
Ag     2 -0.2127509247363 -0.2109393264070  0.3492810173480 1.0
Ag     2  0.4724663750412  0.4724663750412  0.4724663750412 1.0
Ag     2  0.1435913231141  0.1435913231141  0.1435913231141 1.0
END
