TITL 4Ag2Se_CONSTCUT_NOSYM-200811-040110-83d2e9 -0.0072 224.956945 -4.61184087E+004 0 0 12 (P1) n - 1
REM
REM Run started: Tue, 11 Aug 2020 13:40:40 +0100 in /lustre/scratch/uccabz1/launch_tmp/launcher_2020-08-11-12-27-12-912196
REM CASTEP 20.1 from code version af48c487+ pr-geom-scf-spinfix Tue Jun 2 15:39:59 2020 +0100
REM Functional PBE for solids (2008) Relativity Koelling-Harmon Dispersion off
REM Cut-off 300.0000 eV Grid scale 2.0000 Gmax 26.6208 1/A FBSC none
REM MP grid 5 4 3 Offset 0.000 0.000 0.000 No. kpts 30 Spacing 0.05
REM Total runtime: 925.84 s
REM Overall efficiency: 91.6667 %
REM
REM
REM
REM compiler GCC version 4.9.2
REM options -cpp -iprefix /lustre/shared/ucl/apps/gcc/4.9.2/bin/../lib/gcc/x86_64-unknown-linux-gnu/4.9.2/ -mtune=corei7 -march=x86-64 -g -Og
REM COMMAND_LINE
REM seed -1823298856 -1581895081 2104520417 -2138882644 -1053496112 -1514699997 485575092 310066819 -1713828484 445078944 -715279994 -340318940
REM
REM Se 3|2.1|7|7|9|40:41:32(qc=5)
REM Ag 3|2.2|7|7|9|40U:50:41:42(qc=5)
REM 
CELL 1.54180    4.64851    6.83332    7.27648   77.05339   88.15820   91.86032
LATT -1
SFAC Se Ag 
Se     1 -0.2364192764521 -0.1365101211562 -0.4135490861455 1.0
Se     1  0.4474007697485 -0.0904976021032  0.0377641884709 1.0
Se     1  0.2761958814305  0.4521488105162 -0.4447405834633 1.0
Se     1 -0.0915280914450  0.4761656093766  0.0463116830216 1.0
Ag     2  0.2296695040960  0.0574657117853 -0.2908223384354 1.0
Ag     2 -0.2429916190806 -0.3515768473806  0.3246600469611 1.0
Ag     2 -0.1216689315021  0.2308988329936  0.4038484743943 1.0
Ag     2 -0.2668844493594  0.3194442550295 -0.2509348251607 1.0
Ag     2  0.2646372652581 -0.1169222493941  0.3900395763783 1.0
Ag     2 -0.0513656340832  0.0681248133948  0.0753827635981 1.0
Ag     2  0.4011032800123  0.3043958421368  0.1826063150928 1.0
Ag     2  0.3897093013771 -0.3714060551988 -0.1577752147122 1.0
END
