TITL 4Ag2Se_CONSTCUT_NOSYM-200810-175446-eee379 -0.1859 231.718042 -4.61183760E+004 0 0 12 (P1) n - 1
REM
REM Run started: Tue, 11 Aug 2020 06:43:34 +0100 in /lustre/scratch/uccabz1/launch_tmp/launcher_2020-08-10-16-54-44-737060
REM CASTEP 20.1 from code version af48c487+ pr-geom-scf-spinfix Tue Jun 2 15:39:59 2020 +0100
REM Functional PBE for solids (2008) Relativity Koelling-Harmon Dispersion off
REM Cut-off 300.0000 eV Grid scale 2.0000 Gmax 26.6208 1/A FBSC none
REM MP grid 6 3 3 Offset 0.000 0.000 0.000 No. kpts 27 Spacing 0.05
REM Total runtime: 52109.1 s
REM Overall efficiency: 98.75 %
REM
REM 4Ag2Se_CONSTCUT_NOSYM.cell (04f5f378ecb9f162ba8e0859c4ea5e99)
REM
REM compiler GCC version 4.9.2
REM options -cpp -iprefix /lustre/shared/ucl/apps/gcc/4.9.2/bin/../lib/gcc/x86_64-unknown-linux-gnu/4.9.2/ -mtune=corei7 -march=x86-64 -g -Og
REM COMMAND_LINE
REM seed 526218043 108332059 1098633774 -60444745 -1415710490 785690197 -1335689806 -733792544 -630492505 935927864 -958748526 -340256450
REM
REM Se 3|2.1|7|7|9|40:41:32(qc=5)
REM Ag 3|2.2|7|7|9|40U:50:41:42(qc=5)
REM 
CELL 1.54180    4.67199    7.64906    8.57078   66.07261   57.26627   69.10564
LATT -1
SFAC Se Ag 
Se     1 -0.2749677050902 -0.1240742238341  0.3375645893318 1.0
Se     1 -0.6158894515479  0.5106144739181  0.0478954830233 1.0
Se     1 -0.0631252422895 -0.0920438019820 -0.1982701873388 1.0
Se     1  0.3674699412439  0.4973755751315 -0.5099571474967 1.0
Ag     2 -0.1218743380910  0.3362474681689 -0.4232478267364 1.0
Ag     2  0.3876217553357  0.1118178729198 -0.2830395577947 1.0
Ag     2 -0.9280445041884  0.0062718869584  0.4247748091507 1.0
Ag     2  0.6690254761103 -0.3052064186402 -0.3191220160640 1.0
Ag     2 -0.3307440463473  0.1768389006007 -0.0185177459773 1.0
Ag     2  0.1085135485629  0.4453099215344 -0.1181599771980 1.0
Ag     2 -0.4120681122487  0.2467494590120  0.3037321047525 1.0
Ag     2  0.3339554785504 -0.1233834137873  0.0828027723474 1.0
END
