TITL 4Ag2Se_CONSTCUT-200811-152108-fdca52 -0.2503 226.669727 -4.61183787E+004 0 0 12 (Cc) n - 1
REM
REM Run started: Wed, 12 Aug 2020 04:54:15 +0100 in /lustre/scratch/uccabz1/launch_tmp/launcher_2020-08-11-14-21-06-308341
REM CASTEP 20.1 from code version af48c487+ pr-geom-scf-spinfix Tue Jun 2 15:39:59 2020 +0100
REM Functional PBE for solids (2008) Relativity Koelling-Harmon Dispersion off
REM Cut-off 300.0000 eV Grid scale 2.0000 Gmax 26.6208 1/A FBSC none
REM MP grid 5 4 3 Offset 0.000 0.000 0.000 No. kpts 30 Spacing 0.05
REM Total runtime: 53648.7 s
REM Overall efficiency: 98.75 %
REM
REM 4Ag2Se_CONSTCUT.cell (097ebf1fd09fb02df10c18b5c3809341)
REM
REM compiler GCC version 4.9.2
REM options -cpp -iprefix /lustre/shared/ucl/apps/gcc/4.9.2/bin/../lib/gcc/x86_64-unknown-linux-gnu/4.9.2/ -mtune=corei7 -march=x86-64 -g -Og
REM COMMAND_LINE
REM seed -947896493 1596789824 -1559460578 1390404022 148214800 -1143118030 1159475228 538026722 -79299528 2029201439 362449259 1765490578
REM
REM Se 3|2.1|7|7|9|40:41:32(qc=5)
REM Ag 3|2.2|7|7|9|40U:50:41:42(qc=5)
REM 
CELL 1.54180    5.14933    6.54057    7.88484  113.91166  108.33412   91.65460
LATT -1
SFAC Se Ag 
Se     1 -0.7491342721926 -0.4087248901791  0.2300191497063 1.0
Se     1  0.5208465781011  0.3612559601146 -0.2300191497063 1.0
Se     1 -0.1533970627771 -0.1772180662097 -0.3164123310469 1.0
Se     1 -0.3369847317302  0.1391942648372  0.3164123310469 1.0
Ag     2  0.3140832186643 -0.0968044656356 -0.4062945800507 1.0
Ag     2  0.2203777987149  0.3094901144151  0.4062945800507 1.0
Ag     2  0.0885398385512 -0.1209639751642  0.0760716064314 1.0
Ag     2 -0.4875317678802 -0.1970355815956 -0.0760716064314 1.0
Ag     2  0.2009068297945  0.1910201491952 -0.0731587167645 1.0
Ag     2  0.7740655465590  0.2641788659597  0.0731587167645 1.0
Ag     2  0.0000902882227  0.4574373382563 -0.2860503477498 1.0
Ag     2 -0.2138593640275 -0.2565123139939  0.2860503477498 1.0
END
