TITL 4Ag2Se_CONSTCUT_NOSYM-200810-172712-565f04 -0.0344 218.611620 -4.61186035E+004 0 0 12 (P2/c) n - 1
REM
REM Run started: Tue, 11 Aug 2020 04:03:29 +0100 in /lustre/scratch/uccabz1/launch_tmp/launcher_2020-08-10-16-27-10-612989
REM CASTEP 20.1 from code version af48c487+ pr-geom-scf-spinfix Tue Jun 2 15:39:59 2020 +0100
REM Functional PBE for solids (2008) Relativity Koelling-Harmon Dispersion off
REM Cut-off 300.0000 eV Grid scale 2.0000 Gmax 26.6208 1/A FBSC none
REM MP grid 5 3 4 Offset 0.000 0.000 0.000 No. kpts 30 Spacing 0.05
REM Total runtime: 38319 s
REM Overall efficiency: 97.6364 %
REM
REM 4Ag2Se_CONSTCUT_NOSYM.cell (04f5f378ecb9f162ba8e0859c4ea5e99)
REM
REM compiler GCC version 4.9.2
REM options -cpp -iprefix /lustre/shared/ucl/apps/gcc/4.9.2/bin/../lib/gcc/x86_64-unknown-linux-gnu/4.9.2/ -mtune=corei7 -march=x86-64 -g -Og
REM COMMAND_LINE
REM seed -335433636 662134139 -117951740 1859348886 -1714180170 -1098396392 1714506169 1551297679 514019264 -1669806307 -1678093948 -1567002022
REM
REM Se 3|2.1|7|7|9|40:41:32(qc=5)
REM Ag 3|2.2|7|7|9|40U:50:41:42(qc=5)
REM 
CELL 1.54180    4.99461    8.57788    6.25663   90.22645   89.98045  125.35731
LATT -1
SFAC Se Ag 
Se     1 -0.3774326943362  0.1736088379723 -0.3270315021450 1.0
Se     1  0.4132799004242 -0.4217065606663 -0.3303239698524 1.0
Se     1  0.1195574188141  0.1710752650149  0.0417060354656 1.0
Se     1 -0.0899724285465 -0.4244561859908  0.0382089104449 1.0
Ag     2 -0.3246881474601  0.2108140438197  0.2301056111929 1.0
Ag     2 -0.4853167920558 -0.1263344285215 -0.0129977756744 1.0
Ag     2  0.0182237808162 -0.1243177638746 -0.2757373540156 1.0
Ag     2 -0.1427509090570 -0.4614617734159  0.4813148787878 1.0
Ag     2  0.5176017511693 -0.1245948873260  0.4691221983376 1.0
Ag     2  0.3542800881018  0.5357454487497  0.2247873856040 1.0
Ag     2  0.1781815910835  0.2134733837099 -0.5134053284515 1.0
Ag     2  0.0145512410466 -0.1262320794713  0.2422419103060 1.0
END
