TITL 4Ag2Se_CONSTCUT-200811-084645-13d6ec 0.0017 224.889492 -4.61181372E+004 0 0 12 (Cmce) n - 1
REM
REM Run started: Tue, 11 Aug 2020 09:52:30 +0100 in /lustre/scratch/uccabz1/launch_tmp/launcher_2020-08-11-07-46-42-881029
REM CASTEP 20.1 from code version af48c487+ pr-geom-scf-spinfix Tue Jun 2 15:39:59 2020 +0100
REM Functional PBE for solids (2008) Relativity Koelling-Harmon Dispersion off
REM Cut-off 300.0000 eV Grid scale 2.0000 Gmax 26.6208 1/A FBSC none
REM MP grid 5 4 3 Offset 0.000 0.000 0.000 No. kpts 12 Spacing 0.05
REM Total runtime: 4017.75 s
REM Overall efficiency: 83.6667 %
REM
REM 4Ag2Se_CONSTCUT.cell (097ebf1fd09fb02df10c18b5c3809341)
REM
REM compiler GCC version 4.9.2
REM options -cpp -iprefix /lustre/shared/ucl/apps/gcc/4.9.2/bin/../lib/gcc/x86_64-unknown-linux-gnu/4.9.2/ -mtune=corei7 -march=x86-64 -g -Og
REM COMMAND_LINE
REM seed -1434614319 -690008431 -605062903 -1018374198 -27124139 1255609067 458964184 1385304747 1314427978 811250321 -1096716717 -883114536
REM
REM Se 3|2.1|7|7|9|40:41:32(qc=5)
REM Ag 3|2.2|7|7|9|40U:50:41:42(qc=5)
REM 
CELL 1.54180    4.73811    6.19582    7.66064   90.00000   90.00000   90.00000
LATT -1
SFAC Se Ag 
Se     1  0.2500000000000  0.2500000000000  0.2047424000000 1.0
Se     1 -0.2500000000000 -0.2500000000000  0.2047424000000 1.0
Se     1 -0.2500000000000  0.2500000000000 -0.2952576000000 1.0
Se     1  0.2500000000000 -0.2500000000000 -0.2952576000000 1.0
Ag     2 -0.2500000000000  0.1395546074414  0.3719312313259 1.0
Ag     2  0.2500000000000 -0.1395546074414  0.3719312313259 1.0
Ag     2  0.2500000000000  0.1395546074414 -0.1280687686741 1.0
Ag     2 -0.2500000000000 -0.1395546074414 -0.1280687686741 1.0
Ag     2 -0.2500000000000 -0.3604453925586 -0.4624464313259 1.0
Ag     2  0.2500000000000  0.3604453925586 -0.4624464313259 1.0
Ag     2  0.2500000000000 -0.3604453925586  0.0375535686741 1.0
Ag     2 -0.2500000000000  0.3604453925586  0.0375535686741 1.0
END
