TITL 4Ag2Se_CONSTCUT_NOSYM-200810-211759-697ff8 -0.0225 220.772317 -4.61185113E+004 0 0 12 (P1) n - 1
REM
REM Run started: Tue, 11 Aug 2020 11:10:41 +0100 in /lustre/scratch/uccabz1/launch_tmp/launcher_2020-08-10-20-17-57-269398
REM CASTEP 20.1 from code version af48c487+ pr-geom-scf-spinfix Tue Jun 2 15:39:59 2020 +0100
REM Functional PBE for solids (2008) Relativity Koelling-Harmon Dispersion off
REM Cut-off 300.0000 eV Grid scale 2.0000 Gmax 26.6208 1/A FBSC none
REM MP grid 4 4 4 Offset 0.000 0.000 0.000 No. kpts 32 Spacing 0.05
REM Total runtime: 50120 s
REM Overall efficiency: 97.6923 %
REM
REM 4Ag2Se_CONSTCUT_NOSYM.cell (04f5f378ecb9f162ba8e0859c4ea5e99)
REM
REM compiler GCC version 4.9.2
REM options -cpp -iprefix /lustre/shared/ucl/apps/gcc/4.9.2/bin/../lib/gcc/x86_64-unknown-linux-gnu/4.9.2/ -mtune=corei7 -march=x86-64 -g -Og
REM COMMAND_LINE
REM seed 846633961 1960929173 305125023 1353411492 -2124661056 1879604552 1553135935 -732454658 -229918890 1633516510 1159855635 494794048
REM
REM Se 3|2.1|7|7|9|40:41:32(qc=5)
REM Ag 3|2.2|7|7|9|40U:50:41:42(qc=5)
REM 
CELL 1.54180    6.58108    6.47557    6.67697   70.87612   63.93348   60.79382
LATT -1
SFAC Se Ag 
Se     1 -0.1222565794412 -0.3419467099497 -0.5136408096976 1.0
Se     1  0.4609330022045  0.1176248290494 -0.1169627589123 1.0
Se     1  0.0901147972570 -0.1806244405504 -0.1496678277190 1.0
Se     1 -0.3212403273245  0.2646424425446  0.2445806605844 1.0
Ag     2 -0.2958766225245 -0.3094762455466  0.0877196137788 1.0
Ag     2  0.1554820173934  0.3786577403867  0.1920007831863 1.0
Ag     2 -0.4529472658091 -0.4777228610597 -0.1386703864354 1.0
Ag     2 -0.1200750395468  0.1530821914440 -0.4434458464081 1.0
Ag     2  0.0532684859909  0.2953043133736 -0.2082183035110 1.0
Ag     2  0.3535342435384 -0.4420941512760 -0.4731046905072 1.0
Ag     2  0.1765385674611 -0.1107005237369  0.1863915222276 1.0
Ag     2  0.4211689208007 -0.0178332846791  0.4524998434137 1.0
END
