TITL 4Ag2Se_CONSTCUT-200811-151324-25a7f5 -0.0878 239.583902 -4.61181672E+004 0 0 12 (Pnnm) n - 1
REM
REM Run started: Tue, 11 Aug 2020 17:02:40 +0100 in /lustre/scratch/uccabz1/launch_tmp/launcher_2020-08-11-14-13-22-690575
REM CASTEP 20.1 from code version af48c487+ pr-geom-scf-spinfix Tue Jun 2 15:39:59 2020 +0100
REM Functional PBE for solids (2008) Relativity Koelling-Harmon Dispersion off
REM Cut-off 300.0000 eV Grid scale 2.0000 Gmax 26.6208 1/A FBSC none
REM MP grid 5 3 3 Offset 0.000 0.000 0.000 No. kpts 12 Spacing 0.05
REM Total runtime: 6616.56 s
REM Overall efficiency: 80.125 %
REM
REM 4Ag2Se_CONSTCUT.cell (097ebf1fd09fb02df10c18b5c3809341)
REM
REM compiler GCC version 4.9.2
REM options -cpp -iprefix /lustre/shared/ucl/apps/gcc/4.9.2/bin/../lib/gcc/x86_64-unknown-linux-gnu/4.9.2/ -mtune=corei7 -march=x86-64 -g -Og
REM COMMAND_LINE
REM seed 2010593431 -498329462 596293353 231442827 -1290983219 -1691760696 1276362972 -209533642 -742884767 -831976124 557717552 -1774508641
REM
REM Se 3|2.1|7|7|9|40:41:32(qc=5)
REM Ag 3|2.2|7|7|9|40U:50:41:42(qc=5)
REM 
CELL 1.54180    4.46029    6.98460    7.69048   90.00000   90.00000   90.00000
LATT -1
SFAC Se Ag 
Se     1 -0.0035153689975 -0.2996742975719 -0.1394667422071 1.0
Se     1 -0.0035153689975  0.2996742975719  0.1394667422071 1.0
Se     1 -0.5035153689975  0.2003257024281 -0.3605332577929 1.0
Se     1 -0.5035153689975 -0.2003257024281  0.3605332577929 1.0
Ag     2 -0.0034405201164 -0.0723141167971  0.1729834754066 1.0
Ag     2 -0.0034405201164  0.0723141167971 -0.1729834754066 1.0
Ag     2 -0.5034405201164  0.4276858832029  0.3270165245934 1.0
Ag     2 -0.5034405201164 -0.4276858832029 -0.3270165245934 1.0
Ag     2 -0.0029526108861  0.2004961826568  0.4624572137798 1.0
Ag     2 -0.0029526108861 -0.2004961826568 -0.4624572137798 1.0
Ag     2  0.4970473891139 -0.2995038173432  0.0375427862202 1.0
Ag     2  0.4970473891139  0.2995038173432 -0.0375427862202 1.0
END
