TITL 4Ag2Se_CONSTCUT_NOSYM-200811-035647-b37196 0.0102 216.617645 -4.61185667E+004 0 0 12 (P-1) n - 1
REM
REM Run started: Tue, 11 Aug 2020 07:05:04 +0100 in /lustre/scratch/uccabz1/launch_tmp/launcher_2020-08-11-02-56-45-917105
REM CASTEP 20.1 from code version af48c487+ pr-geom-scf-spinfix Tue Jun 2 15:39:59 2020 +0100
REM Functional PBE for solids (2008) Relativity Koelling-Harmon Dispersion off
REM Cut-off 300.0000 eV Grid scale 2.0000 Gmax 26.6208 1/A FBSC none
REM MP grid 6 4 3 Offset 0.000 0.000 0.000 No. kpts 36 Spacing 0.05
REM Total runtime: 15202 s
REM Overall efficiency: 95.5 %
REM
REM 4Ag2Se_CONSTCUT_NOSYM.cell (04f5f378ecb9f162ba8e0859c4ea5e99)
REM
REM compiler GCC version 4.9.2
REM options -cpp -iprefix /lustre/shared/ucl/apps/gcc/4.9.2/bin/../lib/gcc/x86_64-unknown-linux-gnu/4.9.2/ -mtune=corei7 -march=x86-64 -g -Og
REM COMMAND_LINE
REM seed 570592623 -2067231312 1810925685 2045889945 733585908 1153886149 880856617 1894956210 1903403956 -234709373 1906127080 1692014136
REM
REM Se 3|2.1|7|7|9|40:41:32(qc=5)
REM Ag 3|2.2|7|7|9|40U:50:41:42(qc=5)
REM 
CELL 1.54180    4.09408    7.70840    8.18649   67.79767   87.95372   66.12128
LATT -1
SFAC Se Ag 
Se     1  0.3548129744402 -0.0077230098300  0.3859650853210 1.0
Se     1  0.3539892594019 -0.0071373030566 -0.1150682160012 1.0
Se     1 -0.2899934857211  0.3974085522300  0.0558318043195 1.0
Se     1 -0.2851412518182  0.3973527261169 -0.4454340564170 1.0
Ag     2 -0.4655610744673 -0.3067529540485 -0.2792489020485 1.0
Ag     2  0.2598554259827  0.3750594064776  0.3252670318785 1.0
Ag     2 -0.1935884997609  0.0151612144673 -0.3860763019103 1.0
Ag     2 -0.1949436619965  0.0149529821810  0.1153489831680 1.0
Ag     2  0.0346322524977 -0.3060376891141 -0.5291871893116 1.0
Ag     2  0.2624240467895  0.3739382968582 -0.1731194956883 1.0
Ag     2  0.0325113735480 -0.3039110458544 -0.0302614002707 1.0
Ag     2  0.5319160411041 -0.3031362764274  0.2198678569607 1.0
END
