TITL 4Ag2Se_CONSTCUT_NOSYM-200811-023056-77aa79 -0.0496 221.259444 -4.61185552E+004 0 0 12 (P1) n - 1
REM
REM Run started: Tue, 11 Aug 2020 09:59:53 +0100 in /lustre/scratch/uccabz1/launch_tmp/launcher_2020-08-11-01-30-54-501776
REM CASTEP 20.1 from code version af48c487+ pr-geom-scf-spinfix Tue Jun 2 15:39:59 2020 +0100
REM Functional PBE for solids (2008) Relativity Koelling-Harmon Dispersion off
REM Cut-off 300.0000 eV Grid scale 2.0000 Gmax 26.6208 1/A FBSC none
REM MP grid 5 3 3 Offset 0.000 0.000 0.000 No. kpts 23 Spacing 0.05
REM Total runtime: 27021.6 s
REM Overall efficiency: 83.9231 %
REM
REM 4Ag2Se_CONSTCUT_NOSYM.cell (04f5f378ecb9f162ba8e0859c4ea5e99)
REM
REM compiler GCC version 4.9.2
REM options -cpp -iprefix /lustre/shared/ucl/apps/gcc/4.9.2/bin/../lib/gcc/x86_64-unknown-linux-gnu/4.9.2/ -mtune=corei7 -march=x86-64 -g -Og
REM COMMAND_LINE
REM seed -975565880 -1263131856 -756568308 -1288500845 -1819043038 -1029689097 1837323934 -708454124 -732387621 1941567158 1240482091 1469706140
REM
REM Se 3|2.1|7|7|9|40:41:32(qc=5)
REM Ag 3|2.2|7|7|9|40U:50:41:42(qc=5)
REM 
CELL 1.54180    4.71282    6.83190    7.08465   79.47601   97.40942   85.69975
LATT -1
SFAC Se Ag 
Se     1 -0.3996732082984 -0.4316050792581  0.0552764268443 1.0
Se     1  0.1178426173687  0.4472841624099 -0.4908991461210 1.0
Se     1 -0.3584643624157 -0.1222013697192 -0.4691692943175 1.0
Se     1 -0.0327293404665  0.0481970743520 -0.0662452063481 1.0
Ag     2  0.4189468315281  0.1216765141306 -0.2567137102808 1.0
Ag     2  0.1704463972664  0.3548891435772  0.0352456599146 1.0
Ag     2 -0.3131897593876  0.4817658616247 -0.2816028534024 1.0
Ag     2  0.1702889029408 -0.2631389790848 -0.2480733295419 1.0
Ag     2  0.1005088085176  0.0536709919837  0.3810110658958 1.0
Ag     2  0.1034605877399 -0.2840126975208  0.1953446016835 1.0
Ag     2 -0.3965104285414  0.2952522251488  0.3807444283381 1.0
Ag     2 -0.4491941462519 -0.0278564476440  0.1530848573354 1.0
END
