TITL 4Ag2Se_CONSTCUT-200811-155308-6a2654 0.0338 234.239926 -4.61178253E+004 0 0 12 (P3) n - 1
REM
REM Run started: Tue, 11 Aug 2020 22:03:40 +0100 in /lustre/scratch/uccabz1/launch_tmp/launcher_2020-08-11-14-53-06-239768
REM CASTEP 20.1 from code version af48c487+ pr-geom-scf-spinfix Tue Jun 2 15:39:59 2020 +0100
REM Functional PBE for solids (2008) Relativity Koelling-Harmon Dispersion off
REM Cut-off 300.0000 eV Grid scale 2.0000 Gmax 26.6208 1/A FBSC none
REM MP grid 5 4 4 Offset 0.000 0.000 0.000 No. kpts 40 Spacing 0.05
REM Total runtime: 22396.5 s
REM Overall efficiency: 90.6667 %
REM
REM 4Ag2Se_CONSTCUT.cell (097ebf1fd09fb02df10c18b5c3809341)
REM
REM compiler GCC version 4.9.2
REM options -cpp -iprefix /lustre/shared/ucl/apps/gcc/4.9.2/bin/../lib/gcc/x86_64-unknown-linux-gnu/4.9.2/ -mtune=corei7 -march=x86-64 -g -Og
REM COMMAND_LINE
REM seed -1007132414 1258349236 827698280 -216505630 2054503108 70916214 -876851652 -1557877686 998228020 -65665055 429976789 874402352
REM
REM Se 3|2.1|7|7|9|40:41:32(qc=5)
REM Ag 3|2.2|7|7|9|40U:50:41:42(qc=5)
REM 
CELL 1.54180    4.71472    7.57421    7.57421  120.00000   90.00000   90.00000
LATT -1
SFAC Se Ag 
Se     1  0.3939846955376 -0.3978367855857  0.0559102074671 1.0
Se     1  0.3939846955376  0.4537469930529  0.3978367855857 1.0
Se     1  0.3939846955376 -0.0559102074671 -0.4537469930529 1.0
Se     1 -0.2003905991242 -0.0000000000000  0.0000000000000 1.0
Ag     2 -0.1196820079866  0.1094781653489 -0.3398195217743 1.0
Ag     2 -0.1196820079866 -0.4492976871232 -0.1094781653489 1.0
Ag     2 -0.1196820079866  0.3398195217743  0.4492976871232 1.0
Ag     2  0.1258229976155  0.2906419990813  0.0415472382760 1.0
Ag     2  0.1258229976155 -0.2490947608053 -0.2906419990813 1.0
Ag     2  0.1258229976155 -0.0415472382760  0.2490947608053 1.0
Ag     2  0.3756157828659  0.3333333333333 -0.3333333333333 1.0
Ag     2 -0.1690200392408 -0.3333333333333  0.3333333333333 1.0
END
