TITL 4Ag2Se_CONSTCUT-200811-042921-2d9c64 -0.0352 228.178265 -4.61170841E+004 0 0 12 (Pcca) n - 1
REM
REM Run started: Tue, 11 Aug 2020 05:15:21 +0100 in /lustre/scratch/uccabz1/launch_tmp/launcher_2020-08-11-03-29-19-297166
REM CASTEP 20.1 from code version af48c487+ pr-geom-scf-spinfix Tue Jun 2 15:39:59 2020 +0100
REM Functional PBE for solids (2008) Relativity Koelling-Harmon Dispersion off
REM Cut-off 300.0000 eV Grid scale 2.0000 Gmax 26.6208 1/A FBSC none
REM MP grid 6 3 3 Offset 0.000 0.000 0.000 No. kpts 12 Spacing 0.05
REM Total runtime: 2908.59 s
REM Overall efficiency: 81.8 %
REM
REM 4Ag2Se_CONSTCUT.cell (097ebf1fd09fb02df10c18b5c3809341)
REM
REM compiler GCC version 4.9.2
REM options -cpp -iprefix /lustre/shared/ucl/apps/gcc/4.9.2/bin/../lib/gcc/x86_64-unknown-linux-gnu/4.9.2/ -mtune=corei7 -march=x86-64 -g -Og
REM COMMAND_LINE
REM seed 1960604914 4427395 -297720250 -1366822456 1044945268 2053041100 -1206024420 253724331 1503671417 1931064184 2080659719 -44531931
REM
REM Se 3|2.1|7|7|9|40:41:32(qc=5)
REM Ag 3|2.2|7|7|9|40U:50:41:42(qc=5)
REM 
CELL 1.54180    3.60593    7.30180    8.66617   90.00000   90.00000   90.00000
LATT -1
SFAC Se Ag 
Se     1  0.0055634000000  0.2499999000000 -0.1072402446571 1.0
Se     1  0.0055634000000 -0.2500001000000  0.1072402446571 1.0
Se     1  0.0055634000000  0.2499999000000  0.3927597553429 1.0
Se     1  0.0055634000000 -0.2500001000000 -0.3927597553429 1.0
Ag     2  0.2868714857442 -0.4081521014258  0.3556641585507 1.0
Ag     2  0.2868714857442  0.4081519014258 -0.3556641585507 1.0
Ag     2  0.2868714857442 -0.0918480985742 -0.1443358414493 1.0
Ag     2  0.2868714857442  0.0918478985742  0.1443358414493 1.0
Ag     2 -0.2757446857442 -0.0918480985742  0.3556641585507 1.0
Ag     2 -0.2757446857442  0.0918478985742 -0.3556641585507 1.0
Ag     2 -0.2757446857442 -0.4081521014258 -0.1443358414493 1.0
Ag     2 -0.2757446857442  0.4081519014258  0.1443358414493 1.0
END
