TITL 4Ag2Se_CONSTCUT_NOSYM-200810-201956-bd6dc7 0.1997 218.746309 -4.61184918E+004 0 0 12 (P-1) n - 1
REM
REM Run started: Tue, 11 Aug 2020 11:42:57 +0100 in /lustre/scratch/uccabz1/launch_tmp/launcher_2020-08-11-00-49-25-948632
REM CASTEP 20.1 from code version af48c487+ pr-geom-scf-spinfix Tue Jun 2 15:39:59 2020 +0100
REM Functional PBE for solids (2008) Relativity Koelling-Harmon Dispersion off
REM Cut-off 300.0000 eV Grid scale 2.0000 Gmax 26.6208 1/A FBSC none
REM MP grid 5 4 4 Offset 0.000 0.000 0.000 No. kpts 40 Spacing 0.05
REM Total runtime: 40869 s
REM Overall efficiency: 98.6667 %
REM
REM
REM
REM compiler GCC version 4.9.2
REM options -cpp -iprefix /lustre/shared/ucl/apps/gcc/4.9.2/bin/../lib/gcc/x86_64-unknown-linux-gnu/4.9.2/ -mtune=corei7 -march=x86-64 -g -Og
REM COMMAND_LINE
REM seed -1472884047 -1293083690 1395592025 -556180349 -2146975278 -1843657759 1727621532 1416100973 1102873000 -635597085 2003438410 -1788912574
REM
REM Se 3|2.1|7|7|9|40:41:32(qc=5)
REM Ag 3|2.2|7|7|9|40U:50:41:42(qc=5)
REM 
CELL 1.54180    6.61216    7.01026    6.59896   98.14349  119.15882  114.62404
LATT -1
SFAC Se Ag 
Se     1 -0.1548071658170  0.1148445283162  0.1047519969697 1.0
Se     1  0.3064108586143  0.3476407451551 -0.0353498575646 1.0
Se     1  0.3004941859295 -0.2445766442256  0.3969226246648 1.0
Se     1 -0.1449371668696 -0.2930524458622 -0.3177371165579 1.0
Ag     2 -0.1682010707609  0.3678732324534 -0.1755143403439 1.0
Ag     2 -0.1971263838329 -0.2936773579178  0.1158464890144 1.0
Ag     2  0.3508199638699 -0.2412723783747 -0.0384777561382 1.0
Ag     2 -0.1498863222183  0.4216225361382  0.3870712819277 1.0
Ag     2  0.3538631841283  0.4350917038992 -0.4160275321982 1.0
Ag     2  0.3013057269029  0.0435333296814 -0.3141987837142 1.0
Ag     2  0.3244792228501  0.1004241951210  0.2519616535950 1.0
Ag     2 -0.2046360327965  0.0262995556156 -0.5139556596545 1.0
END
