TITL 4Ag2Se_CONSTCUT_NOSYM-200810-223823-f0db3c -0.0350 231.975675 -4.61180943E+004 0 0 12 (P1) n - 1
REM
REM Run started: Tue, 11 Aug 2020 02:44:44 +0100 in /lustre/scratch/uccabz1/launch_tmp/launcher_2020-08-10-21-38-21-384746
REM CASTEP 20.1 from code version af48c487+ pr-geom-scf-spinfix Tue Jun 2 15:39:59 2020 +0100
REM Functional PBE for solids (2008) Relativity Koelling-Harmon Dispersion off
REM Cut-off 300.0000 eV Grid scale 2.0000 Gmax 26.6208 1/A FBSC none
REM MP grid 5 4 3 Offset 0.000 0.000 0.000 No. kpts 30 Spacing 0.05
REM Total runtime: 14906.3 s
REM Overall efficiency: 96.1429 %
REM
REM 4Ag2Se_CONSTCUT_NOSYM.cell (04f5f378ecb9f162ba8e0859c4ea5e99)
REM
REM compiler GCC version 4.9.2
REM options -cpp -iprefix /lustre/shared/ucl/apps/gcc/4.9.2/bin/../lib/gcc/x86_64-unknown-linux-gnu/4.9.2/ -mtune=corei7 -march=x86-64 -g -Og
REM COMMAND_LINE
REM seed -203335035 -2074306871 -580047017 686673548 703876338 -1992276 -1051032915 -1793937836 -1399421948 -422509801 1869508587 -2025305456
REM
REM Se 3|2.1|7|7|9|40:41:32(qc=5)
REM Ag 3|2.2|7|7|9|40U:50:41:42(qc=5)
REM 
CELL 1.54180    4.47861    5.28306    9.92185   85.04366   83.09161   87.00765
LATT -1
SFAC Se Ag 
Se     1  0.4828994708650  0.1077138693502 -0.4338644126625 1.0
Se     1  0.1553010467304 -0.2871511181578  0.2855899273931 1.0
Se     1 -0.3399778622718  0.1509194291875  0.0436275578154 1.0
Se     1 -0.0942373191491 -0.2788786522004 -0.1885520992611 1.0
Ag     2 -0.4214966781959  0.0610096158075  0.3045774236168 1.0
Ag     2 -0.0367055569810 -0.2277381960100 -0.4620655116532 1.0
Ag     2  0.0037171731520  0.2960720090148  0.4280735966664 1.0
Ag     2 -0.0797000767235  0.2273912104440 -0.2751555931566 1.0
Ag     2  0.1970524268609  0.3598456816177 -0.0513331223194 1.0
Ag     2  0.2276893626801 -0.1559719347288  0.0090539033458 1.0
Ag     2  0.4321005779098 -0.4391512904007 -0.3197029654957 1.0
Ag     2 -0.2907943648769 -0.4398663239239  0.1706106957111 1.0
END
