TITL 4Ag2Se_CONSTCUT-200811-045652-3d1b2b 0.0215 217.994930 -4.61182807E+004 0 0 12 (P21) n - 1
REM
REM Run started: Tue, 11 Aug 2020 09:05:01 +0100 in /lustre/scratch/uccabz1/launch_tmp/launcher_2020-08-11-03-56-50-604477
REM CASTEP 20.1 from code version af48c487+ pr-geom-scf-spinfix Tue Jun 2 15:39:59 2020 +0100
REM Functional PBE for solids (2008) Relativity Koelling-Harmon Dispersion off
REM Cut-off 300.0000 eV Grid scale 2.0000 Gmax 26.6208 1/A FBSC none
REM MP grid 5 4 3 Offset 0.000 0.000 0.000 No. kpts 18 Spacing 0.05
REM Total runtime: 15011.3 s
REM Overall efficiency: 95.625 %
REM
REM 4Ag2Se_CONSTCUT.cell (097ebf1fd09fb02df10c18b5c3809341)
REM
REM compiler GCC version 4.9.2
REM options -cpp -iprefix /lustre/shared/ucl/apps/gcc/4.9.2/bin/../lib/gcc/x86_64-unknown-linux-gnu/4.9.2/ -mtune=corei7 -march=x86-64 -g -Og
REM COMMAND_LINE
REM seed -453657815 162406332 -1370818306 -496945910 -944323144 -1278945034 -1879731450 1123514728 -1892988924 1930860067 1636024803 -2023246888
REM
REM Se 3|2.1|7|7|9|40:41:32(qc=5)
REM Ag 3|2.2|7|7|9|40U:50:41:42(qc=5)
REM 
CELL 1.54180    4.82163    5.77719    7.85144   94.62062   90.00000   90.00000
LATT -1
SFAC Se Ag 
Se     1  0.0154193913493 -0.2618440248947 -0.1180745451403 1.0
Se     1  0.5154193913493  0.2618440248947  0.1180745451403 1.0
Se     1  0.2714987950616  0.1999047671174 -0.4275613709923 1.0
Se     1 -0.2285012049384 -0.1999047671174  0.4275613709923 1.0
Ag     2 -0.4447151606524 -0.0304266389113 -0.2045039255907 1.0
Ag     2  0.0552848393476  0.0304266389113  0.2045039255907 1.0
Ag     2 -0.2356636288097  0.3191344195737 -0.5357855810534 1.0
Ag     2  0.2643363711903 -0.3191344195737  0.5357855810534 1.0
Ag     2 -0.4430990654083  0.4764327893492 -0.2016170812390 1.0
Ag     2  0.0569009345917 -0.4764327893492  0.2016170812390 1.0
Ag     2 -0.4587089315406 -0.2357766172637  0.1175101294182 1.0
Ag     2  0.0412910684594  0.2357766172637 -0.1175101294182 1.0
END
