TITL 4Ag2Se_CONSTCUT-200811-082259-9004f0 0.0139 228.083173 -4.61178516E+004 0 0 12 (P3) n - 1
REM
REM Run started: Tue, 11 Aug 2020 14:59:04 +0100 in /lustre/scratch/uccabz1/launch_tmp/launcher_2020-08-11-07-22-57-642423
REM CASTEP 20.1 from code version af48c487+ pr-geom-scf-spinfix Tue Jun 2 15:39:59 2020 +0100
REM Functional PBE for solids (2008) Relativity Koelling-Harmon Dispersion off
REM Cut-off 300.0000 eV Grid scale 2.0000 Gmax 26.6208 1/A FBSC none
REM MP grid 5 3 3 Offset 0.000 0.000 0.000 No. kpts 13 Spacing 0.05
REM Total runtime: 23844.8 s
REM Overall efficiency: 91.7778 %
REM
REM 4Ag2Se_CONSTCUT.cell (097ebf1fd09fb02df10c18b5c3809341)
REM
REM compiler GCC version 4.9.2
REM options -cpp -iprefix /lustre/shared/ucl/apps/gcc/4.9.2/bin/../lib/gcc/x86_64-unknown-linux-gnu/4.9.2/ -mtune=corei7 -march=x86-64 -g -Og
REM COMMAND_LINE
REM seed -1257473175 1327644589 1341465328 -1257292562 708492743 365051180 -732255806 1920266435 -1857745815 322182392 -366601667 -848384285
REM
REM Se 3|2.1|7|7|9|40:41:32(qc=5)
REM Ag 3|2.2|7|7|9|40U:50:41:42(qc=5)
REM 
CELL 1.54180    4.19909    7.91961    7.91961  120.00000   90.00000   90.00000
LATT -1
SFAC Se Ag 
Se     1  0.0761304731720  0.0453439175036  0.5014287419690 1.0
Se     1  0.0761304731720 -0.5014287419690 -0.4560847244654 1.0
Se     1  0.0761304731720  0.4560847244654 -0.0453439175036 1.0
Se     1 -0.2427106757749 -0.0000000333333  0.0000000333333 1.0
Ag     2 -0.3981626646093  0.4119151491821  0.1486008086747 1.0
Ag     2 -0.3981626646093 -0.1486008086747  0.2633144405074 1.0
Ag     2 -0.3981626646093 -0.2633144405074 -0.4119151491821 1.0
Ag     2  0.3166136098115  0.1768171786183  0.2676548173170 1.0
Ag     2  0.3166136098115 -0.2676548173170 -0.0908375386987 1.0
Ag     2  0.3166136098115  0.0908375386987 -0.1768171786183 1.0
Ag     2  0.6033907351034  0.3333333000000 -0.3333333000000 1.0
Ag     2  0.1029109855491 -0.3333333666667  0.3333333666667 1.0
END
