TITL 4Ag2Se_CONSTCUT_NOSYM-200811-030000-b47542 0.1463 217.643095 -4.61183152E+004 0 0 12 (P1) n - 1
REM
REM Run started: Tue, 11 Aug 2020 15:21:59 +0100 in /lustre/scratch/uccabz1/launch_tmp/launcher_2020-08-11-12-26-08-529995
REM CASTEP 20.1 from code version af48c487+ pr-geom-scf-spinfix Tue Jun 2 15:39:59 2020 +0100
REM Functional PBE for solids (2008) Relativity Koelling-Harmon Dispersion off
REM Cut-off 300.0000 eV Grid scale 2.0000 Gmax 26.6208 1/A FBSC none
REM MP grid 4 4 3 Offset 0.000 0.000 0.000 No. kpts 24 Spacing 0.05
REM Total runtime: 11184.9 s
REM Overall efficiency: 98.4 %
REM
REM
REM
REM compiler GCC version 4.9.2
REM options -cpp -iprefix /lustre/shared/ucl/apps/gcc/4.9.2/bin/../lib/gcc/x86_64-unknown-linux-gnu/4.9.2/ -mtune=corei7 -march=x86-64 -g -Og
REM COMMAND_LINE
REM seed 1704767686 1168667065 647864553 -1621149889 -155623207 -1558711018 925005162 1153944598 -1991635142 1305864249 1016532687 -160873452
REM
REM Se 3|2.1|7|7|9|40:41:32(qc=5)
REM Ag 3|2.2|7|7|9|40U:50:41:42(qc=5)
REM 
CELL 1.54180    5.70231    5.67034    7.71799   73.75413   66.04451   88.97820
LATT -1
SFAC Se Ag 
Se     1  0.3136144045486 -0.0012191755813 -0.5048918098277 1.0
Se     1  0.1652073928412  0.2099637926065 -0.0907652191383 1.0
Se     1 -0.4317742930401 -0.3286313986165 -0.0687856593504 1.0
Se     1 -0.2465007288193  0.4643580826430  0.5033383464994 1.0
Ag     2 -0.2266598252679 -0.0572991938000 -0.4603742031030 1.0
Ag     2  0.0912673653097 -0.2699700114301 -0.1154084583328 1.0
Ag     2  0.1850283133704  0.3203902846755  0.2301932901794 1.0
Ag     2  0.1479762240996 -0.1754939023961  0.2183730371401 1.0
Ag     2  0.1956875851885 -0.4982759791713 -0.4387938764736 1.0
Ag     2 -0.2673743395055  0.1511499432265 -0.1524334763865 1.0
Ag     2 -0.2783743175884  0.3066936547011  0.1812210703265 1.0
Ag     2 -0.3581957811367 -0.2073310968573  0.2219129584668 1.0
END
