TITL 4Ag2Se_CONSTCUT_NOSYM-200810-215452-36e2c3 0.0608 215.736803 -4.61182506E+004 0 0 12 (P1) n - 1
REM
REM Run started: Tue, 11 Aug 2020 03:12:28 +0100 in /lustre/scratch/uccabz1/launch_tmp/launcher_2020-08-11-00-02-45-354081
REM CASTEP 20.1 from code version af48c487+ pr-geom-scf-spinfix Tue Jun 2 15:39:59 2020 +0100
REM Functional PBE for solids (2008) Relativity Koelling-Harmon Dispersion off
REM Cut-off 300.0000 eV Grid scale 2.0000 Gmax 26.6208 1/A FBSC none
REM MP grid 4 4 3 Offset 0.000 0.000 0.000 No. kpts 24 Spacing 0.05
REM Total runtime: 7924.92 s
REM Overall efficiency: 96.6667 %
REM
REM
REM
REM compiler GCC version 4.9.2
REM options -cpp -iprefix /lustre/shared/ucl/apps/gcc/4.9.2/bin/../lib/gcc/x86_64-unknown-linux-gnu/4.9.2/ -mtune=corei7 -march=x86-64 -g -Og
REM COMMAND_LINE
REM seed 299687218 -705067871 1120893696 -2141133542 1376608118 562682978 -998742067 1475437867 -2004380439 -288897028 1136283053 -240781493
REM
REM Se 3|2.1|7|7|9|40:41:32(qc=5)
REM Ag 3|2.2|7|7|9|40U:50:41:42(qc=5)
REM 
CELL 1.54180    5.60310    5.42969    7.62895  100.78006  106.09663   96.42835
LATT -1
SFAC Se Ag 
Se     1 -0.0074011955592 -0.3004794902941  0.4545230283991 1.0
Se     1  0.3993561626591  0.0238775747663  0.2280711097875 1.0
Se     1 -0.0383233578204  0.1471327794893 -0.1720981485679 1.0
Se     1 -0.4768062719033 -0.4065569417413 -0.1734757467247 1.0
Ag     2 -0.5374628122911  0.1038296974605 -0.1260058282442 1.0
Ag     2  0.0704995690373 -0.3245221015005 -0.1324785181135 1.0
Ag     2  0.5190287386782 -0.1774767598337 -0.4632099688902 1.0
Ag     2 -0.1477148038485 -0.0857568827392  0.1488503982344 1.0
Ag     2  0.4904534731367 -0.4866393516645  0.1825068638095 1.0
Ag     2  0.1799396761792  0.2437143745128 -0.4981471145297 1.0
Ag     2 -0.0269609440937  0.4168272894015  0.1438606099522 1.0
Ag     2 -0.2973632341742  0.3406888121429  0.5424743148873 1.0
END
