TITL 4Ag2Se_CONSTCUT-200811-054718-1c87d7 0.0468 223.160706 -4.61184957E+004 0 0 12 (Pbcm) n - 1
REM
REM Run started: Tue, 11 Aug 2020 11:49:21 +0100 in /lustre/scratch/uccabz1/launch_tmp/launcher_2020-08-11-04-47-16-698470
REM CASTEP 20.1 from code version af48c487+ pr-geom-scf-spinfix Tue Jun 2 15:39:59 2020 +0100
REM Functional PBE for solids (2008) Relativity Koelling-Harmon Dispersion off
REM Cut-off 300.0000 eV Grid scale 2.0000 Gmax 26.6208 1/A FBSC none
REM MP grid 5 3 3 Offset 0.000 0.000 0.000 No. kpts 16 Spacing 0.05
REM Total runtime: 21807.8 s
REM Overall efficiency: 96.6 %
REM
REM 4Ag2Se_CONSTCUT.cell (097ebf1fd09fb02df10c18b5c3809341)
REM
REM compiler GCC version 4.9.2
REM options -cpp -iprefix /lustre/shared/ucl/apps/gcc/4.9.2/bin/../lib/gcc/x86_64-unknown-linux-gnu/4.9.2/ -mtune=corei7 -march=x86-64 -g -Og
REM COMMAND_LINE
REM seed 1291863951 532808135 91894286 1941618350 -828714855 1088251966 2034830784 1205728504 -664874211 -973271613 1437007795 601678533
REM
REM Se 3|2.1|7|7|9|40:41:32(qc=5)
REM Ag 3|2.2|7|7|9|40U:50:41:42(qc=5)
REM 
CELL 1.54180    4.67287    6.99853    6.82383   90.00000   90.00000   89.86735
LATT -1
SFAC Se Ag 
Se     1 -0.2501373472595  0.1992950900738 -0.4627670938726 1.0
Se     1  0.2501373472595 -0.1992950900738 -0.4627670938726 1.0
Se     1 -0.2494600351341 -0.3006931851810 -0.0468424770238 1.0
Se     1  0.2494600351341  0.3006931851810 -0.0468424770238 1.0
Ag     2  0.2502836312676 -0.1012445634029 -0.0773775782174 1.0
Ag     2 -0.2502836312676  0.1012445634029 -0.0773775782174 1.0
Ag     2  0.2504794737093  0.3988091834617 -0.4319035726847 1.0
Ag     2 -0.2504794737093 -0.3988091834617 -0.4319035726847 1.0
Ag     2  0.2504565498432 -0.3881671080012  0.2033789522495 1.0
Ag     2 -0.2504565498432  0.3881671080012  0.2033789522495 1.0
Ag     2 -0.2495000421752 -0.1120712658151  0.2871814695491 1.0
Ag     2  0.2495000421752  0.1120712658151  0.2871814695491 1.0
END
