TITL 4Ag2Se_CONSTCUT-200811-081801-dad4e7 -0.0161 226.167619 -4.61182828E+004 0 0 12 (Cc) n - 1
REM
REM Run started: Tue, 11 Aug 2020 14:30:58 +0100 in /lustre/scratch/uccabz1/launch_tmp/launcher_2020-08-11-13-07-27-046709
REM CASTEP 20.1 from code version af48c487+ pr-geom-scf-spinfix Tue Jun 2 15:39:59 2020 +0100
REM Functional PBE for solids (2008) Relativity Koelling-Harmon Dispersion off
REM Cut-off 300.0000 eV Grid scale 2.0000 Gmax 26.6208 1/A FBSC none
REM MP grid 4 4 4 Offset 0.000 0.000 0.000 No. kpts 20 Spacing 0.05
REM Total runtime: 1555.56 s
REM Overall efficiency: 93.5 %
REM
REM
REM
REM compiler GCC version 4.9.2
REM options -cpp -iprefix /lustre/shared/ucl/apps/gcc/4.9.2/bin/../lib/gcc/x86_64-unknown-linux-gnu/4.9.2/ -mtune=corei7 -march=x86-64 -g -Og
REM COMMAND_LINE
REM seed -2096220616 -222900170 1977220230 800716567 -608657190 -232470730 354187661 1309055539 -1592582290 1511158295 -904337875 1597959046
REM
REM Se 3|2.1|7|7|9|40:41:32(qc=5)
REM Ag 3|2.2|7|7|9|40U:50:41:42(qc=5)
REM 
CELL 1.54180    6.53110    6.61186    6.61186   66.20962   65.20837   65.20837
LATT -1
SFAC Se Ag 
Se     1 -0.3604537544730  0.4079882426107 -0.0216441865023 1.0
Se     1  0.1395462455270 -0.0216441865023  0.4079882426107 1.0
Se     1  0.2577113933065  0.2364785278625 -0.2724198595037 1.0
Se     1 -0.2422886066935 -0.2724198595037  0.2364785278625 1.0
Ag     2 -0.3149607198623  0.0774804827504  0.4317533063493 1.0
Ag     2  0.1850392801377  0.4317533063493  0.0774804827504 1.0
Ag     2 -0.0702482205381 -0.3251224364951 -0.2611555643676 1.0
Ag     2 -0.5702482205381 -0.2611555643676 -0.3251224364951 1.0
Ag     2 -0.1249932578947  0.3426380679025 -0.4451710031097 1.0
Ag     2  0.3750067421053 -0.4451710031097  0.3426380679025 1.0
Ag     2  0.0978535594616 -0.0909154150047  0.0493898375078 1.0
Ag     2 -0.4021464405384  0.0493898375078 -0.0909154150047 1.0
END
