TITL 4Ag2Se_CONSTCUT_NOSYM-200810-163725-b63ced -0.5555 217.039795 -4.61181515E+004 0 0 12 (P1) n - 1
REM
REM Run started: Tue, 11 Aug 2020 01:07:59 +0100 in /lustre/scratch/uccabz1/launch_tmp/launcher_2020-08-10-15-37-24-202179
REM CASTEP 20.1 from code version af48c487+ pr-geom-scf-spinfix Tue Jun 2 15:39:59 2020 +0100
REM Functional PBE for solids (2008) Relativity Koelling-Harmon Dispersion off
REM Cut-off 300.0000 eV Grid scale 2.0000 Gmax 26.6208 1/A FBSC none
REM MP grid 5 3 3 Offset 0.000 0.000 0.000 No. kpts 23 Spacing 0.05
REM Total runtime: 34594.8 s
REM Overall efficiency: 78.5833 %
REM
REM 4Ag2Se_CONSTCUT_NOSYM.cell (04f5f378ecb9f162ba8e0859c4ea5e99)
REM
REM compiler GCC version 4.9.2
REM options -cpp -iprefix /lustre/shared/ucl/apps/gcc/4.9.2/bin/../lib/gcc/x86_64-unknown-linux-gnu/4.9.2/ -mtune=corei7 -march=x86-64 -g -Og
REM COMMAND_LINE
REM seed 332981469 -2005794829 -1726838978 -845496936 -616011106 907910770 2034685272 701524976 -761821884 447854104 153255375 603614591
REM
REM Se 3|2.1|7|7|9|40:41:32(qc=5)
REM Ag 3|2.2|7|7|9|40U:50:41:42(qc=5)
REM 
CELL 1.54180    4.81685    7.70262    6.78173   86.02235   81.11822   60.81680
LATT -1
SFAC Se Ag 
Se     1  0.0674066355977  0.3087453924275  0.3918507113357 1.0
Se     1  0.3208522977759 -0.1793567329847  0.4496854245919 1.0
Se     1 -0.1531044146208  0.0468875279436  0.1177502298051 1.0
Se     1  0.2320961372751  0.3892688039428 -0.0924564231501 1.0
Ag     2  0.4434986415114  0.4344515309526  0.5029867297496 1.0
Ag     2 -0.0539924525478 -0.3229221554300  0.2458103039196 1.0
Ag     2  0.4601608767649 -0.0693055594139 -0.0229216468177 1.0
Ag     2 -0.0688401547872  0.1861539664445 -0.2460129453127 1.0
Ag     2 -0.2250619279746 -0.3883799637165 -0.3191325976374 1.0
Ag     2 -0.3911897429822  0.5002262107827  0.0819885564425 1.0
Ag     2  0.1160671073547 -0.2313154612832 -0.1667661404966 1.0
Ag     2 -0.3646053033671  0.0131774403348 -0.4462081024300 1.0
END
