TITL 4Ag2Se_CONSTCUT-200811-053419-ae954c 0.0231 218.331960 -4.61179962E+004 0 0 12 (R3m) n - 1
REM
REM Run started: Tue, 11 Aug 2020 06:52:25 +0100 in /lustre/scratch/uccabz1/launch_tmp/launcher_2020-08-11-04-34-16-307084
REM CASTEP 20.1 from code version af48c487+ pr-geom-scf-spinfix Tue Jun 2 15:39:59 2020 +0100
REM Functional PBE for solids (2008) Relativity Koelling-Harmon Dispersion off
REM Cut-off 300.0000 eV Grid scale 2.0000 Gmax 26.6208 1/A FBSC none
REM MP grid 4 4 4 Offset 0.000 0.000 0.000 No. kpts 12 Spacing 0.05
REM Total runtime: 4757.51 s
REM Overall efficiency: 83.6667 %
REM
REM 4Ag2Se_CONSTCUT.cell (097ebf1fd09fb02df10c18b5c3809341)
REM
REM compiler GCC version 4.9.2
REM options -cpp -iprefix /lustre/shared/ucl/apps/gcc/4.9.2/bin/../lib/gcc/x86_64-unknown-linux-gnu/4.9.2/ -mtune=corei7 -march=x86-64 -g -Og
REM COMMAND_LINE
REM seed 1235826183 817986939 -2100383630 -783654022 1047792084 1603786657 -332695281 1547785731 -332406046 756437397 -799556615 2109314169
REM
REM Se 3|2.1|7|7|9|40:41:32(qc=5)
REM Ag 3|2.2|7|7|9|40U:50:41:42(qc=5)
REM 
CELL 1.54180    6.12320    6.12320    6.12320   99.74246   99.74246   99.74246
LATT -1
SFAC Se Ag 
Se     1 -0.4644055655276 -0.0199578038970 -0.4644518085991 1.0
Se     1 -0.0199578038970 -0.4644518085991 -0.4644055655276 1.0
Se     1 -0.4644518085991 -0.4644055655276 -0.0199578038970 1.0
Se     1  0.1508713269320  0.1508713269320  0.1508713269320 1.0
Ag     2 -0.1326620735594 -0.1323412671935  0.3206035003036 1.0
Ag     2 -0.1323412671935  0.3206035003036 -0.1326620735594 1.0
Ag     2  0.3206035003036 -0.1326620735594 -0.1323412671935 1.0
Ag     2  0.2027483847907 -0.3580014382891  0.2027233918259 1.0
Ag     2 -0.3580014382891  0.2027233918259  0.2027483847907 1.0
Ag     2  0.2027233918259  0.2027483847907 -0.3580014382891 1.0
Ag     2 -0.4808029783342 -0.4808029783342 -0.4808029783342 1.0
Ag     2 -0.1533911684524 -0.1533911684524 -0.1533911684524 1.0
END
