TITL 4Ag2Se_CONSTCUT-200811-065926-c5ed64 0.0088 240.131290 -4.61180702E+004 0 0 12 (I41/amd) n - 1
REM
REM Run started: Tue, 11 Aug 2020 08:51:49 +0100 in /lustre/scratch/uccabz1/launch_tmp/launcher_2020-08-11-05-59-23-811732
REM CASTEP 20.1 from code version af48c487+ pr-geom-scf-spinfix Tue Jun 2 15:39:59 2020 +0100
REM Functional PBE for solids (2008) Relativity Koelling-Harmon Dispersion off
REM Cut-off 300.0000 eV Grid scale 2.0000 Gmax 26.6208 1/A FBSC none
REM MP grid 4 4 4 Offset 0.000 0.000 0.000 No. kpts 15 Spacing 0.05
REM Total runtime: 6842.21 s
REM Overall efficiency: 80.6667 %
REM
REM 4Ag2Se_CONSTCUT.cell (097ebf1fd09fb02df10c18b5c3809341)
REM
REM compiler GCC version 4.9.2
REM options -cpp -iprefix /lustre/shared/ucl/apps/gcc/4.9.2/bin/../lib/gcc/x86_64-unknown-linux-gnu/4.9.2/ -mtune=corei7 -march=x86-64 -g -Og
REM COMMAND_LINE
REM seed -2084060731 1838416829 583294941 282861281 -1673183727 178328525 1049039566 -26974113 73858836 -804560330 2037162720 1256217190
REM
REM Se 3|2.1|7|7|9|40:41:32(qc=5)
REM Ag 3|2.2|7|7|9|40U:50:41:42(qc=5)
REM 
CELL 1.54180    6.43974    6.43974    7.36638  115.91814  115.91814   90.00225
LATT -1
SFAC Se Ag 
Se     1  0.0713316781688  0.3911567265739 -0.0378376917657 1.0
Se     1 -0.3911567265739 -0.0713316781688  0.0378376917657 1.0
Se     1  0.3591693699345  0.1789944183396  0.5378376917657 1.0
Se     1 -0.1789944183396 -0.3591693699345 -0.5378376917657 1.0
Ag     2 -0.0041124577492 -0.2175687390601  0.2496576026203 1.0
Ag     2  0.2175687390601  0.0041124577492 -0.2496576026203 1.0
Ag     2 -0.0037700603694  0.2827736583197  0.2503423973797 1.0
Ag     2 -0.2827736583197  0.0037700603694 -0.2503423973797 1.0
Ag     2 -0.5667127659976 -0.2107771330918  0.2504889939677 1.0
Ag     2 -0.7892228669082 -0.4332872340024 -0.2504889939677 1.0
Ag     2  0.4327982400347  0.2887338729405  0.2495110060323 1.0
Ag     2 -0.2887338729405 -0.4327982400347 -0.2495110060323 1.0
END
