TITL 4Ag2Se_CONSTCUT_NOSYM-200810-192305-c5d20c 0.0109 228.854876 -4.61182393E+004 0 0 12 (P1) n - 1
REM
REM Run started: Tue, 11 Aug 2020 03:10:12 +0100 in /lustre/scratch/uccabz1/launch_tmp/launcher_2020-08-10-18-23-04-219984
REM CASTEP 20.1 from code version af48c487+ pr-geom-scf-spinfix Tue Jun 2 15:39:59 2020 +0100
REM Functional PBE for solids (2008) Relativity Koelling-Harmon Dispersion off
REM Cut-off 300.0000 eV Grid scale 2.0000 Gmax 26.6208 1/A FBSC none
REM MP grid 5 4 3 Offset 0.000 0.000 0.000 No. kpts 30 Spacing 0.05
REM Total runtime: 28163.8 s
REM Overall efficiency: 97.4 %
REM
REM 4Ag2Se_CONSTCUT_NOSYM.cell (04f5f378ecb9f162ba8e0859c4ea5e99)
REM
REM compiler GCC version 4.9.2
REM options -cpp -iprefix /lustre/shared/ucl/apps/gcc/4.9.2/bin/../lib/gcc/x86_64-unknown-linux-gnu/4.9.2/ -mtune=corei7 -march=x86-64 -g -Og
REM COMMAND_LINE
REM seed 598464049 -217413450 2020338616 1983366459 -1947430965 -790403616 -461057139 1768165366 -168328676 516264565 748305716 -1872968457
REM
REM Se 3|2.1|7|7|9|40:41:32(qc=5)
REM Ag 3|2.2|7|7|9|40U:50:41:42(qc=5)
REM 
CELL 1.54180    4.68301    6.69072    7.71308   91.18244  106.96366   97.30572
LATT -1
SFAC Se Ag 
Se     1  0.1965431724307 -0.1864779993317  0.0472144916827 1.0
Se     1  0.0773821367192  0.1955818827304 -0.5386320815920 1.0
Se     1 -0.4103654617910  0.3878455361911 -0.0494070670225 1.0
Se     1 -0.3248815919523 -0.3956545882320  0.4098495866352 1.0
Ag     2  0.0697940965945  0.1910439882529 -0.0221675759903 1.0
Ag     2  0.0762735820121  0.4974271467732  0.2393173746841 1.0
Ag     2  0.2983090930176 -0.4218802187991 -0.3313286065907 1.0
Ag     2  0.4631318483024 -0.0001305331826 -0.1817014129552 1.0
Ag     2  0.3781419977848 -0.0946636992154  0.4409147792187 1.0
Ag     2 -0.1252265950066 -0.1937965582767 -0.2845993779462 1.0
Ag     2 -0.2218506624237 -0.0693547154917  0.1934505841255 1.0
Ag     2 -0.2856046156877  0.2915707585816 -0.3632693942492 1.0
END
