TITL 4Ag2Se_CONSTCUT_NOSYM-200811-020300-867acd 0.0518 212.789052 -4.61185585E+004 0 0 12 (P-1) n - 1
REM
REM Run started: Tue, 11 Aug 2020 11:22:08 +0100 in /lustre/scratch/uccabz1/launch_tmp/launcher_2020-08-11-01-02-58-975273
REM CASTEP 20.1 from code version af48c487+ pr-geom-scf-spinfix Tue Jun 2 15:39:59 2020 +0100
REM Functional PBE for solids (2008) Relativity Koelling-Harmon Dispersion off
REM Cut-off 300.0000 eV Grid scale 2.0000 Gmax 26.6208 1/A FBSC none
REM MP grid 6 3 3 Offset 0.000 0.000 0.000 No. kpts 27 Spacing 0.05
REM Total runtime: 33692.8 s
REM Overall efficiency: 89.6154 %
REM
REM 4Ag2Se_CONSTCUT_NOSYM.cell (04f5f378ecb9f162ba8e0859c4ea5e99)
REM
REM compiler GCC version 4.9.2
REM options -cpp -iprefix /lustre/shared/ucl/apps/gcc/4.9.2/bin/../lib/gcc/x86_64-unknown-linux-gnu/4.9.2/ -mtune=corei7 -march=x86-64 -g -Og
REM COMMAND_LINE
REM seed 913372794 -391753957 778567799 -1115426136 -377148150 -886021196 -1297674548 -2097422190 1103591267 1111512997 -1740573640 -1826785902
REM
REM Se 3|2.1|7|7|9|40:41:32(qc=5)
REM Ag 3|2.2|7|7|9|40U:50:41:42(qc=5)
REM 
CELL 1.54180    4.00786    7.79409    7.79255   63.18701   80.10450   80.12031
LATT -1
SFAC Se Ag 
Se     1  0.2238378736954  0.3263013844533 -0.1305748479769 1.0
Se     1  0.2088289351596 -0.1725030486548  0.3689100507208 1.0
Se     1 -0.4689559065438 -0.1294545281191 -0.0864293092497 1.0
Se     1 -0.4845306737205  0.3716943055462 -0.5865948938692 1.0
Ag     2  0.1208932851159 -0.2790699043529  0.7630665375728 1.0
Ag     2 -0.3780175834259  0.4763912623662 -0.9816898850334 1.0
Ag     2 -0.3815213927663 -0.0231919815629  0.5196349593797 1.0
Ag     2  0.1176605172020  0.2211018238738  0.2645234626383 1.0
Ag     2 -0.0030091926939 -0.3589703485236  0.1838871656757 1.0
Ag     2 -0.2567627015484 -0.4453001332383  0.5974114771556 1.0
Ag     2 -0.0029217407545  0.1429044663741 -0.3146921919538 1.0
Ag     2 -0.2574936197196  0.0561254018379  0.0990744749402 1.0
END
