TITL 4Ag2Se_CONSTCUT_NOSYM-200810-204442-cdc53f 0.0377 227.969624 -4.61184258E+004 0 0 12 (P1) n - 1
REM
REM Run started: Tue, 11 Aug 2020 05:32:54 +0100 in /lustre/scratch/uccabz1/launch_tmp/launcher_2020-08-10-19-44-41-242872
REM CASTEP 20.1 from code version af48c487+ pr-geom-scf-spinfix Tue Jun 2 15:39:59 2020 +0100
REM Functional PBE for solids (2008) Relativity Koelling-Harmon Dispersion off
REM Cut-off 300.0000 eV Grid scale 2.0000 Gmax 26.6208 1/A FBSC none
REM MP grid 5 3 3 Offset 0.000 0.000 0.000 No. kpts 23 Spacing 0.05
REM Total runtime: 31791.7 s
REM Overall efficiency: 87.5 %
REM
REM 4Ag2Se_CONSTCUT_NOSYM.cell (04f5f378ecb9f162ba8e0859c4ea5e99)
REM
REM compiler GCC version 4.9.2
REM options -cpp -iprefix /lustre/shared/ucl/apps/gcc/4.9.2/bin/../lib/gcc/x86_64-unknown-linux-gnu/4.9.2/ -mtune=corei7 -march=x86-64 -g -Og
REM COMMAND_LINE
REM seed -1266038562 257792675 1617339909 1353978856 -1294673871 -669513138 2127790590 -625722135 852020498 1290565986 1361755666 -94756699
REM
REM Se 3|2.1|7|7|9|40:41:32(qc=5)
REM Ag 3|2.2|7|7|9|40U:50:41:42(qc=5)
REM 
CELL 1.54180    4.50371    7.24353    7.28314   98.75991   90.92936  103.53564
LATT -1
SFAC Se Ag 
Se     1  0.6247212084926  0.1894004904565 -0.4908070254772 1.0
Se     1 -0.1494547781124 -0.2717091243806  0.1424054886637 1.0
Se     1  0.1505114419143  0.1933678491656  0.0418209703007 1.0
Se     1  0.2181804164470 -0.2577575313385 -0.2972373371748 1.0
Ag     2  0.0521225976505 -0.0366089080162  0.4598333957263 1.0
Ag     2  0.2085664501316  0.3750225604651 -0.3822123884602 1.0
Ag     2  0.2891297856357 -0.4422682042151 -0.0086831573248 1.0
Ag     2 -0.3227521024273  0.3042051320138 -0.1240966907786 1.0
Ag     2 -0.5095117216932 -0.0213503304865  0.1544199458691 1.0
Ag     2 -0.1353903002517  0.4135341313738  0.2807525500122 1.0
Ag     2  0.4732451104333 -0.3311455120840  0.3995790612554 1.0
Ag     2 -0.2282863082206 -0.0766061529538 -0.1911522126117 1.0
END
