TITL 4Ag2Se_CONSTCUT_NOSYM-200811-033112-efccb7 -0.0142 227.716256 -4.61182303E+004 0 0 12 (P1) n - 1
REM
REM Run started: Tue, 11 Aug 2020 13:50:14 +0100 in /lustre/scratch/uccabz1/launch_tmp/launcher_2020-08-11-02-31-10-579556
REM CASTEP 20.1 from code version af48c487+ pr-geom-scf-spinfix Tue Jun 2 15:39:59 2020 +0100
REM Functional PBE for solids (2008) Relativity Koelling-Harmon Dispersion off
REM Cut-off 300.0000 eV Grid scale 2.0000 Gmax 26.6208 1/A FBSC none
REM MP grid 5 4 3 Offset 0.000 0.000 0.000 No. kpts 30 Spacing 0.05
REM Total runtime: 41341.7 s
REM Overall efficiency: 93.9167 %
REM
REM 4Ag2Se_CONSTCUT_NOSYM.cell (04f5f378ecb9f162ba8e0859c4ea5e99)
REM
REM compiler GCC version 4.9.2
REM options -cpp -iprefix /lustre/shared/ucl/apps/gcc/4.9.2/bin/../lib/gcc/x86_64-unknown-linux-gnu/4.9.2/ -mtune=corei7 -march=x86-64 -g -Og
REM COMMAND_LINE
REM seed 403059361 101576530 -833136725 -293955578 -209860229 276178542 1797203270 -313820244 458908395 480225783 -2140096012 690718319
REM
REM Se 3|2.1|7|7|9|40:41:32(qc=5)
REM Ag 3|2.2|7|7|9|40U:50:41:42(qc=5)
REM 
CELL 1.54180    4.63121    6.76490    7.70334   76.36312   94.83036   78.58063
LATT -1
SFAC Se Ag 
Se     1  0.3584170259420 -0.2975075883285 -0.0218487037097 1.0
Se     1 -0.0625938093760 -0.2013513369323  0.4657807496640 1.0
Se     1  0.2746541737577 -0.7416189108005  0.3570924901562 1.0
Se     1 -0.2151814001309  0.1958520497162 -0.1755762816497 1.0
Ag     2 -0.6449113047816 -0.1011925075729  0.2517478735116 1.0
Ag     2 -0.8354465741392  0.3564129113182 -0.0064691873796 1.0
Ag     2 -0.2503773140229  0.1765249512901  0.1763704798866 1.0
Ag     2 -0.2918982401454 -0.5187333526248  0.3797526646213 1.0
Ag     2 -0.3082709054279  0.6236123969499 -0.2681151716263 1.0
Ag     2  0.2498818656341 -0.0032223759499 -0.3284381887918 1.0
Ag     2 -0.1491911182159 -0.2119041701808  0.0853598795063 1.0
Ag     2  0.2563059009058  0.4230697331153 -0.3587011041891 1.0
END
