TITL 4Ag2Se_CONSTCUT-200811-075029-05668a -0.0819 217.521567 -4.61182563E+004 0 0 12 (P21/m) n - 1
REM
REM Run started: Tue, 11 Aug 2020 11:39:01 +0100 in /lustre/scratch/uccabz1/launch_tmp/launcher_2020-08-11-06-50-27-034360
REM CASTEP 20.1 from code version af48c487+ pr-geom-scf-spinfix Tue Jun 2 15:39:59 2020 +0100
REM Functional PBE for solids (2008) Relativity Koelling-Harmon Dispersion off
REM Cut-off 300.0000 eV Grid scale 2.0000 Gmax 26.6208 1/A FBSC none
REM MP grid 6 6 2 Offset 0.000 0.000 0.000 No. kpts 18 Spacing 0.05
REM Total runtime: 13825.8 s
REM Overall efficiency: 89.5 %
REM
REM 4Ag2Se_CONSTCUT.cell (097ebf1fd09fb02df10c18b5c3809341)
REM
REM compiler GCC version 4.9.2
REM options -cpp -iprefix /lustre/shared/ucl/apps/gcc/4.9.2/bin/../lib/gcc/x86_64-unknown-linux-gnu/4.9.2/ -mtune=corei7 -march=x86-64 -g -Og
REM COMMAND_LINE
REM seed 1585895670 317333212 1303878575 -1929465429 -2070580149 1267317026 -843994090 2032657820 -744774476 -519708232 -458712461 -1605987640
REM
REM Se 3|2.1|7|7|9|40:41:32(qc=5)
REM Ag 3|2.2|7|7|9|40U:50:41:42(qc=5)
REM 
CELL 1.54180    3.91664    3.91029   14.24337   94.31461   90.00000   90.00000
LATT -1
SFAC Se Ag 
Se     1 -0.2500000000000 -0.2501829123356 -0.0926600366522 1.0
Se     1  0.2500000000000  0.2501829123356  0.0926600366522 1.0
Se     1 -0.2500000000000 -0.0520465710853  0.2792740050326 1.0
Se     1  0.2500000000000  0.0520465710853 -0.2792740050326 1.0
Ag     2  0.2500000000000 -0.5448884808583  0.2740064210637 1.0
Ag     2 -0.2500000000000  0.5448884808583 -0.2740064210637 1.0
Ag     2  0.2500000000000 -0.4843847346287 -0.4266457521912 1.0
Ag     2 -0.2500000000000  0.4843847346287  0.4266457521912 1.0
Ag     2 -0.2500000000000 -0.2532173590053  0.0943916902554 1.0
Ag     2  0.2500000000000  0.2532173590053 -0.0943916902554 1.0
Ag     2  0.2500000000000 -0.0170742102051  0.4260256594203 1.0
Ag     2 -0.2500000000000  0.0170742102051 -0.4260256594203 1.0
END
