TITL 4Ag2Se_CONSTCUT-200811-144642-bd925a 0.0403 210.997048 -4.61178160E+004 0 0 12 (I4/mmm) n - 1
REM
REM Run started: Tue, 11 Aug 2020 18:34:19 +0100 in /lustre/scratch/uccabz1/launch_tmp/launcher_2020-08-11-13-46-40-989454
REM CASTEP 20.1 from code version af48c487+ pr-geom-scf-spinfix Tue Jun 2 15:39:59 2020 +0100
REM Functional PBE for solids (2008) Relativity Koelling-Harmon Dispersion off
REM Cut-off 300.0000 eV Grid scale 2.0000 Gmax 26.6208 1/A FBSC none
REM MP grid 4 4 3 Offset 0.000 0.000 0.000 No. kpts 12 Spacing 0.05
REM Total runtime: 13705.8 s
REM Overall efficiency: 84.1 %
REM
REM 4Ag2Se_CONSTCUT.cell (097ebf1fd09fb02df10c18b5c3809341)
REM
REM compiler GCC version 4.9.2
REM options -cpp -iprefix /lustre/shared/ucl/apps/gcc/4.9.2/bin/../lib/gcc/x86_64-unknown-linux-gnu/4.9.2/ -mtune=corei7 -march=x86-64 -g -Og
REM COMMAND_LINE
REM seed -357997872 2101351680 1907756916 902386797 2072153481 1300526019 779259818 766722853 272678220 720087551 1521294144 -2055195080
REM
REM Se 3|2.1|7|7|9|40:41:32(qc=5)
REM Ag 3|2.2|7|7|9|40U:50:41:42(qc=5)
REM 
CELL 1.54180    5.01076    5.01255    8.40067   89.94102   90.00000   90.00000
LATT -1
SFAC Se Ag 
Se     1 -0.2500615330616 -0.4957838784580  0.2496702320581 1.0
Se     1 -0.2500615330616 -0.0042161215420 -0.2496702320581 1.0
Se     1  0.2500615330616  0.4957838784580 -0.2496702320581 1.0
Se     1  0.2500615330616  0.0042161215420  0.2496702320581 1.0
Ag     2 -0.2498482660720  0.0011277231769  0.4177542123732 1.0
Ag     2 -0.2498482660720 -0.5011277231769 -0.4177542123732 1.0
Ag     2  0.2498482660720 -0.0011277231769 -0.4177542123732 1.0
Ag     2  0.2498482660720  0.5011277231769  0.4177542123732 1.0
Ag     2  0.2501852917835 -0.0000351382852 -0.0825246468304 1.0
Ag     2  0.2501852917835  0.5000351382852  0.0825246468304 1.0
Ag     2 -0.2501852917835  0.0000351382852  0.0825246468304 1.0
Ag     2 -0.2501852917835 -0.5000351382852 -0.0825246468304 1.0
END
