TITL 4Ag2Se_CONSTCUT_NOSYM-200810-182350-06f029 0.1570 224.077570 -4.61180673E+004 0 0 12 (P1) n - 1
REM
REM Run started: Tue, 11 Aug 2020 02:16:33 +0100 in /lustre/scratch/uccabz1/launch_tmp/launcher_2020-08-10-18-02-53-714593
REM CASTEP 20.1 from code version af48c487+ pr-geom-scf-spinfix Tue Jun 2 15:39:59 2020 +0100
REM Functional PBE for solids (2008) Relativity Koelling-Harmon Dispersion off
REM Cut-off 300.0000 eV Grid scale 2.0000 Gmax 26.6208 1/A FBSC none
REM MP grid 5 5 3 Offset 0.000 0.000 0.000 No. kpts 38 Spacing 0.05
REM Total runtime: 31473.2 s
REM Overall efficiency: 83.4167 %
REM
REM
REM
REM compiler GCC version 4.9.2
REM options -cpp -iprefix /lustre/shared/ucl/apps/gcc/4.9.2/bin/../lib/gcc/x86_64-unknown-linux-gnu/4.9.2/ -mtune=corei7 -march=x86-64 -g -Og
REM COMMAND_LINE
REM seed 1261571875 -1314825495 -1218060150 507217730 1762634480 475751825 -150429441 1366283201 -2055215764 -1820172514 -1154184682 1752084430
REM
REM Se 3|2.1|7|7|9|40:41:32(qc=5)
REM Ag 3|2.2|7|7|9|40U:50:41:42(qc=5)
REM 
CELL 1.54180    4.81205    4.86013   10.31822  110.59891   86.58309   97.19137
LATT -1
SFAC Se Ag 
Se     1  0.2485841030501  0.3923559968211 -0.1951743567656 1.0
Se     1  0.0548302433967 -0.2393623880462  0.2536565092167 1.0
Se     1 -0.3170241632925  0.1357827246255 -0.0246424511709 1.0
Se     1 -0.3051241024710  0.4856209277605 -0.4844387734055 1.0
Ag     2 -0.4996564825820 -0.1287815907082  0.4076876565385 1.0
Ag     2 -0.1947197948914 -0.3903836755354 -0.1973880360824 1.0
Ag     2  0.3735774961507 -0.1559463388758 -0.2961507420364 1.0
Ag     2 -0.3232990707251  0.2796988237618  0.2396750879866 1.0
Ag     2  0.1816427326884  0.3392543046890  0.3987785405731 1.0
Ag     2 -0.4823385026683 -0.3339767489789  0.0821433754201 1.0
Ag     2 -0.0537829745613  0.0413438135465 -0.3986634509251 1.0
Ag     2  0.1494635159057  0.0517121509403  0.0702366406509 1.0
END
