TITL 4Ag2Se_CONSTCUT-200811-150740-e084c1 0.0389 211.015031 -4.61178181E+004 0 0 12 (I4/mmm) n - 1
REM
REM Run started: Tue, 11 Aug 2020 16:39:57 +0100 in /lustre/scratch/uccabz1/launch_tmp/launcher_2020-08-11-14-07-38-654460
REM CASTEP 20.1 from code version af48c487+ pr-geom-scf-spinfix Tue Jun 2 15:39:59 2020 +0100
REM Functional PBE for solids (2008) Relativity Koelling-Harmon Dispersion off
REM Cut-off 300.0000 eV Grid scale 2.0000 Gmax 26.6208 1/A FBSC none
REM MP grid 4 4 3 Offset 0.000 0.000 0.000 No. kpts 8 Spacing 0.05
REM Total runtime: 5617.39 s
REM Overall efficiency: 91.1667 %
REM
REM 4Ag2Se_CONSTCUT.cell (097ebf1fd09fb02df10c18b5c3809341)
REM
REM compiler GCC version 4.9.2
REM options -cpp -iprefix /lustre/shared/ucl/apps/gcc/4.9.2/bin/../lib/gcc/x86_64-unknown-linux-gnu/4.9.2/ -mtune=corei7 -march=x86-64 -g -Og
REM COMMAND_LINE
REM seed -1557360790 -744008249 1757708195 -699892667 534174487 1702698060 1657123988 1262456509 -3050295 -968283019 1901470003 -1742293079
REM
REM Se 3|2.1|7|7|9|40:41:32(qc=5)
REM Ag 3|2.2|7|7|9|40U:50:41:42(qc=5)
REM 
CELL 1.54180    5.01249    5.01114    8.40085   90.00000   90.00000   90.00000
LATT -1
SFAC Se Ag 
Se     1  0.2499704725159 -0.2502163800676  0.2501996820365 1.0
Se     1 -0.2499704725159 -0.2502163800676 -0.2501996820365 1.0
Se     1  0.2499704725159  0.2502163800676 -0.2501996820365 1.0
Se     1 -0.2499704725159  0.2502163800676  0.2501996820365 1.0
Ag     2  0.2493675905554 -0.2497445306159 -0.4174462344439 1.0
Ag     2 -0.2493675905554 -0.2497445306159  0.4174462344439 1.0
Ag     2  0.2493675905554  0.2497445306159  0.4174462344439 1.0
Ag     2 -0.2493675905554  0.2497445306159 -0.4174462344439 1.0
Ag     2 -0.2504752076201  0.2497744083484 -0.0821911632781 1.0
Ag     2  0.2504752076201  0.2497744083484  0.0821911632781 1.0
Ag     2 -0.2504752076201 -0.2497744083484  0.0821911632781 1.0
Ag     2  0.2504752076201 -0.2497744083484 -0.0821911632781 1.0
END
