TITL 4Ag2Se_CONSTCUT-200811-065506-cec12f 0.0031 242.332492 -4.61184072E+004 0 0 12 (P4212) n - 1
REM
REM Run started: Tue, 11 Aug 2020 08:25:48 +0100 in /lustre/scratch/uccabz1/launch_tmp/launcher_2020-08-11-05-55-04-487551
REM CASTEP 20.1 from code version af48c487+ pr-geom-scf-spinfix Tue Jun 2 15:39:59 2020 +0100
REM Functional PBE for solids (2008) Relativity Koelling-Harmon Dispersion off
REM Cut-off 300.0000 eV Grid scale 2.0000 Gmax 26.6208 1/A FBSC none
REM MP grid 6 3 3 Offset 0.000 0.000 0.000 No. kpts 12 Spacing 0.05
REM Total runtime: 6383.14 s
REM Overall efficiency: 87.1667 %
REM
REM 4Ag2Se_CONSTCUT.cell (097ebf1fd09fb02df10c18b5c3809341)
REM
REM compiler GCC version 4.9.2
REM options -cpp -iprefix /lustre/shared/ucl/apps/gcc/4.9.2/bin/../lib/gcc/x86_64-unknown-linux-gnu/4.9.2/ -mtune=corei7 -march=x86-64 -g -Og
REM COMMAND_LINE
REM seed -1378835223 -814722647 -779247201 -1686683358 -1406622541 -1793937769 -278213350 -933079740 -951487618 256189397 30959393 839365333
REM
REM Se 3|2.1|7|7|9|40:41:32(qc=5)
REM Ag 3|2.2|7|7|9|40U:50:41:42(qc=5)
REM 
CELL 1.54180    3.98638    7.79749    7.79610   90.00000   90.00000   90.00000
LATT -1
SFAC Se Ag 
Se     1 -0.6055362037362  0.2491688720646 -0.2481313671939 1.0
Se     1 -0.6055362037362 -0.2491688720646  0.2481313671939 1.0
Se     1  0.6055362037362  0.2508311279354  0.2518686328061 1.0
Se     1  0.6055362037362 -0.2508311279354 -0.2518686328061 1.0
Ag     2  0.0035261197378  0.4999512520091  0.3146674489268 1.0
Ag     2  0.0035261197378 -0.4999512520091 -0.3146674489268 1.0
Ag     2 -0.0035261197378  0.0000487479909 -0.1853325510732 1.0
Ag     2 -0.0035261197378 -0.0000487479909  0.1853325510732 1.0
Ag     2  0.0062720581173  0.1851223897761 -0.5005490531372 1.0
Ag     2  0.0062720581173 -0.1851223897761  0.5005490531372 1.0
Ag     2 -0.0062720581173  0.3148776102239 -0.0005490531372 1.0
Ag     2 -0.0062720581173 -0.3148776102239  0.0005490531372 1.0
END
