TITL 4Ag2Se_CONSTCUT_NOSYM-200810-201521-483145 0.0764 212.669343 -4.61184612E+004 0 0 12 (P1) n - 1
REM
REM Run started: Tue, 11 Aug 2020 07:18:37 +0100 in /lustre/scratch/uccabz1/launch_tmp/launcher_2020-08-10-19-15-19-692532
REM CASTEP 20.1 from code version af48c487+ pr-geom-scf-spinfix Tue Jun 2 15:39:59 2020 +0100
REM Functional PBE for solids (2008) Relativity Koelling-Harmon Dispersion off
REM Cut-off 300.0000 eV Grid scale 2.0000 Gmax 26.6208 1/A FBSC none
REM MP grid 5 4 3 Offset 0.000 0.000 0.000 No. kpts 30 Spacing 0.05
REM Total runtime: 44121.4 s
REM Overall efficiency: 97 %
REM
REM 4Ag2Se_CONSTCUT_NOSYM.cell (04f5f378ecb9f162ba8e0859c4ea5e99)
REM
REM compiler GCC version 4.9.2
REM options -cpp -iprefix /lustre/shared/ucl/apps/gcc/4.9.2/bin/../lib/gcc/x86_64-unknown-linux-gnu/4.9.2/ -mtune=corei7 -march=x86-64 -g -Og
REM COMMAND_LINE
REM seed -1830581878 503298774 -1181080766 1177249944 -2082731743 622325874 99488426 -2106338040 136882373 327748178 -431588945 1246485720
REM
REM Se 3|2.1|7|7|9|40:41:32(qc=5)
REM Ag 3|2.2|7|7|9|40U:50:41:42(qc=5)
REM 
CELL 1.54180    4.11470    6.64825    7.98384   76.86439   90.69037   90.46645
LATT -1
SFAC Se Ag 
Se     1 -0.1134618828823 -0.2798343009735 -0.1495329573781 1.0
Se     1 -0.1471243842678 -0.2856047442281  0.3532787482378 1.0
Se     1  0.3749211872862  0.3007470270308 -0.0032923829328 1.0
Se     1  0.3767348942088  0.3096183585766 -0.5070679474453 1.0
Ag     2  0.3792710530139  0.0074210740384 -0.2042358970081 1.0
Ag     2 -0.1277620641231  0.3573353684378  0.2283089282670 1.0
Ag     2 -0.6176755667957 -0.3323132850800 -0.3818249606934 1.0
Ag     2 -0.1352593733063  0.0195013382444  0.0500482403348 1.0
Ag     2 -0.1285220281529  0.0307063160872  0.5466704111431 1.0
Ag     2  0.3654917598560 -0.0069703968767  0.3002421652846 1.0
Ag     2  0.3716548867148 -0.3265656600752  0.1113235707767 1.0
Ag     2 -0.1254097815515  0.3523619048183 -0.2643610185864 1.0
END
