TITL 4Ag2Se_CONSTCUT_NOSYM-200810-220427-bdff51 -0.0183 219.063621 -4.61184857E+004 0 0 12 (P1) n - 1
REM
REM Run started: Tue, 11 Aug 2020 02:57:23 +0100 in /lustre/scratch/uccabz1/launch_tmp/launcher_2020-08-10-21-04-25-562169
REM CASTEP 20.1 from code version af48c487+ pr-geom-scf-spinfix Tue Jun 2 15:39:59 2020 +0100
REM Functional PBE for solids (2008) Relativity Koelling-Harmon Dispersion off
REM Cut-off 300.0000 eV Grid scale 2.0000 Gmax 26.6208 1/A FBSC none
REM MP grid 5 3 3 Offset 0.000 0.000 0.000 No. kpts 23 Spacing 0.05
REM Total runtime: 17776.6 s
REM Overall efficiency: 89.5556 %
REM
REM 4Ag2Se_CONSTCUT_NOSYM.cell (04f5f378ecb9f162ba8e0859c4ea5e99)
REM
REM compiler GCC version 4.9.2
REM options -cpp -iprefix /lustre/shared/ucl/apps/gcc/4.9.2/bin/../lib/gcc/x86_64-unknown-linux-gnu/4.9.2/ -mtune=corei7 -march=x86-64 -g -Og
REM COMMAND_LINE
REM seed -1653869727 1439225027 965088065 1227219820 -702256414 -412878264 318434021 -1496851577 1770667007 -811817568 -1355050292 1933091313
REM
REM Se 3|2.1|7|7|9|40:41:32(qc=5)
REM Ag 3|2.2|7|7|9|40U:50:41:42(qc=5)
REM 
CELL 1.54180    4.21490    7.05383    7.75451   71.91945   90.54090   88.58054
LATT -1
SFAC Se Ag 
Se     1  0.0163423001363 -0.3498127356035 -0.5088577827219 1.0
Se     1  0.3439218212742  0.0768275678145 -0.0873698338857 1.0
Se     1 -0.1557313659616 -0.3426361335711 -0.0176263187563 1.0
Se     1 -0.2222425396906  0.2322136994342  0.3486818673664 1.0
Ag     2  0.2851694470519  0.3436986455031  0.0905273989141 1.0
Ag     2 -0.1791853714569  0.3426917494242 -0.1770950647458 1.0
Ag     2 -0.1313295133417 -0.0148504871754 -0.3140487530017 1.0
Ag     2  0.3254752839214  0.3009545343559 -0.4324264979211 1.0
Ag     2  0.3742585319894 -0.0428641175752  0.4168850704304 1.0
Ag     2  0.4504914497034 -0.3622609329349  0.2522947769478 1.0
Ag     2 -0.1226097778516 -0.0364130646894  0.1555343442845 1.0
Ag     2  0.3770460342258 -0.3320762249823 -0.2372521069108 1.0
END
