TITL 4Ag2Se_CONSTCUT-200811-155721-78facd 0.0213 224.196031 -4.61183444E+004 0 0 12 (P21) n - 1
REM
REM Run started: Tue, 11 Aug 2020 18:34:44 +0100 in /lustre/scratch/uccabz1/launch_tmp/launcher_2020-08-11-14-57-18-363134
REM CASTEP 20.1 from code version af48c487+ pr-geom-scf-spinfix Tue Jun 2 15:39:59 2020 +0100
REM Functional PBE for solids (2008) Relativity Koelling-Harmon Dispersion off
REM Cut-off 300.0000 eV Grid scale 2.0000 Gmax 26.6208 1/A FBSC none
REM MP grid 6 5 2 Offset 0.000 0.000 0.000 No. kpts 15 Spacing 0.05
REM Total runtime: 9509.16 s
REM Overall efficiency: 84 %
REM
REM 4Ag2Se_CONSTCUT.cell (097ebf1fd09fb02df10c18b5c3809341)
REM
REM compiler GCC version 4.9.2
REM options -cpp -iprefix /lustre/shared/ucl/apps/gcc/4.9.2/bin/../lib/gcc/x86_64-unknown-linux-gnu/4.9.2/ -mtune=corei7 -march=x86-64 -g -Og
REM COMMAND_LINE
REM seed -150676520 -922734237 1656118565 -1334453021 -592414244 1522977709 -1074909105 1117649286 -1119127837 1234333409 1574697455 -100359181
REM
REM Se 3|2.1|7|7|9|40:41:32(qc=5)
REM Ag 3|2.2|7|7|9|40U:50:41:42(qc=5)
REM 
CELL 1.54180    4.08498    4.74938   12.59403   90.00000   90.00000  113.42752
LATT -1
SFAC Se Ag 
Se     1  0.5126305022398  0.2304995848743 -0.2284631671865 1.0
Se     1 -0.5126305022398 -0.2304995848743  0.2715368328135 1.0
Se     1 -0.0267186061754 -0.2508941274020 -0.0596043041493 1.0
Se     1  0.0267186061754  0.2508941274020  0.4403956958507 1.0
Ag     2 -0.2745136277716 -0.3517731456700  0.4863559020783 1.0
Ag     2  0.2745136277716  0.3517731456700 -0.0136440979217 1.0
Ag     2 -0.4174571386880 -0.0372753158021  0.0658345071047 1.0
Ag     2  0.4174571386880  0.0372753158021 -0.4341654928953 1.0
Ag     2  0.1882834079923  0.1661112326707  0.2248541004222 1.0
Ag     2 -0.1882834079923 -0.1661112326707 -0.2751458995778 1.0
Ag     2  0.1229291748352  0.4465288850558 -0.3529560382693 1.0
Ag     2 -0.1229291748352 -0.4465288850558  0.1470439617307 1.0
END
