TITL 4Ag2Se_CONSTCUT-200811-072604-898c14 0.0112 229.513921 -4.61178969E+004 0 0 12 (P-1) n - 1
REM
REM Run started: Tue, 11 Aug 2020 12:18:58 +0100 in /lustre/scratch/uccabz1/launch_tmp/launcher_2020-08-11-06-26-02-538425
REM CASTEP 20.1 from code version af48c487+ pr-geom-scf-spinfix Tue Jun 2 15:39:59 2020 +0100
REM Functional PBE for solids (2008) Relativity Koelling-Harmon Dispersion off
REM Cut-off 300.0000 eV Grid scale 2.0000 Gmax 26.6208 1/A FBSC none
REM MP grid 5 4 3 Offset 0.000 0.000 0.000 No. kpts 30 Spacing 0.05
REM Total runtime: 19452.8 s
REM Overall efficiency: 98.25 %
REM
REM 4Ag2Se_CONSTCUT.cell (097ebf1fd09fb02df10c18b5c3809341)
REM
REM compiler GCC version 4.9.2
REM options -cpp -iprefix /lustre/shared/ucl/apps/gcc/4.9.2/bin/../lib/gcc/x86_64-unknown-linux-gnu/4.9.2/ -mtune=corei7 -march=x86-64 -g -Og
REM COMMAND_LINE
REM seed 1175475307 -1459885239 -664127086 -583804599 976052496 -1079614928 1044294702 437837061 -851092287 1942352874 138182868 -2137517888
REM
REM Se 3|2.1|7|7|9|40:41:32(qc=5)
REM Ag 3|2.2|7|7|9|40U:50:41:42(qc=5)
REM 
CELL 1.54180    3.97327    5.76554   10.65712  109.90408   90.91228   90.11370
LATT -1
SFAC Se Ag 
Se     1 -0.2407599051268 -0.2906907900909  0.4358099447922 1.0
Se     1  0.2407599051268  0.2906907900909 -0.4358099447922 1.0
Se     1  0.2407599051268 -0.2093092099091  0.0641900552078 1.0
Se     1 -0.2407599051268  0.2093092099091 -0.0641900552078 1.0
Ag     2  0.2537717020600  0.4082293535667  0.3225041243093 1.0
Ag     2 -0.2537717020600 -0.4082293535667 -0.3225041243093 1.0
Ag     2 -0.2565036966819  0.0745155172374 -0.3315714037918 1.0
Ag     2  0.2565036966819 -0.0745155172374  0.3315714037918 1.0
Ag     2 -0.2537717020600  0.0917706464333  0.1774958756907 1.0
Ag     2  0.2537717020600 -0.0917706464333 -0.1774958756907 1.0
Ag     2 -0.2565036966819 -0.4254844827626  0.1684285962082 1.0
Ag     2  0.2565036966819  0.4254844827626 -0.1684285962082 1.0
END
