TITL 4Ag2Se_CONSTCUT_NOSYM-200810-215614-9520ac -0.0104 217.351353 -4.61183096E+004 0 0 12 (P1) n - 1
REM
REM Run started: Tue, 11 Aug 2020 07:33:59 +0100 in /lustre/scratch/uccabz1/launch_tmp/launcher_2020-08-10-20-56-12-344189
REM CASTEP 20.1 from code version af48c487+ pr-geom-scf-spinfix Tue Jun 2 15:39:59 2020 +0100
REM Functional PBE for solids (2008) Relativity Koelling-Harmon Dispersion off
REM Cut-off 300.0000 eV Grid scale 2.0000 Gmax 26.6208 1/A FBSC none
REM MP grid 4 4 3 Offset 0.000 0.000 0.000 No. kpts 24 Spacing 0.05
REM Total runtime: 34798.1 s
REM Overall efficiency: 97.8333 %
REM
REM 4Ag2Se_CONSTCUT_NOSYM.cell (04f5f378ecb9f162ba8e0859c4ea5e99)
REM
REM compiler GCC version 4.9.2
REM options -cpp -iprefix /lustre/shared/ucl/apps/gcc/4.9.2/bin/../lib/gcc/x86_64-unknown-linux-gnu/4.9.2/ -mtune=corei7 -march=x86-64 -g -Og
REM COMMAND_LINE
REM seed 527273487 356129930 -656021239 1663582762 1280779508 -42706006 2048083915 373956957 -1010554716 741770094 -2078723023 -1385994315
REM
REM Se 3|2.1|7|7|9|40:41:32(qc=5)
REM Ag 3|2.2|7|7|9|40U:50:41:42(qc=5)
REM 
CELL 1.54180    5.16927    5.74499    7.83878   73.48489   76.88778   86.98030
LATT -1
SFAC Se Ag 
Se     1 -0.4484973291302  0.4515224856550 -0.0385050441174 1.0
Se     1 -0.1174841691995 -0.1414082600376  0.1497397631766 1.0
Se     1  0.0276562896043 -0.4140578997205 -0.4197411089992 1.0
Se     1 -0.4209778447640  0.1876656720278 -0.4603548940958 1.0
Ag     2  0.3311555104815 -0.4779382271422  0.2747181055657 1.0
Ag     2 -0.4552667668115 -0.2713459751007  0.5089943991649 1.0
Ag     2  0.0796737441938  0.0851761499534 -0.4616203834690 1.0
Ag     2  0.1568167133602 -0.2804731640092 -0.1442429762492 1.0
Ag     2 -0.3483285792647 -0.0429027700338 -0.1360230085891 1.0
Ag     2  0.3510895957073  0.0328845221242  0.1965274475711 1.0
Ag     2 -0.1086510068903  0.3395167928293  0.1959154797679 1.0
Ag     2  0.1476575427130  0.2206066734542 -0.1416976797267 1.0
END
