TITL 4Ag2Se_CONSTCUT-200811-044422-54b372 0.0471 249.985825 -4.61175849E+004 0 0 12 (Pca21) n - 1
REM
REM Run started: Tue, 11 Aug 2020 07:00:12 +0100 in /lustre/scratch/uccabz1/launch_tmp/launcher_2020-08-11-03-44-20-664695
REM CASTEP 20.1 from code version af48c487+ pr-geom-scf-spinfix Tue Jun 2 15:39:59 2020 +0100
REM Functional PBE for solids (2008) Relativity Koelling-Harmon Dispersion off
REM Cut-off 300.0000 eV Grid scale 2.0000 Gmax 26.6208 1/A FBSC none
REM MP grid 5 3 3 Offset 0.000 0.000 0.000 No. kpts 12 Spacing 0.05
REM Total runtime: 8226.58 s
REM Overall efficiency: 83.7143 %
REM
REM 4Ag2Se_CONSTCUT.cell (097ebf1fd09fb02df10c18b5c3809341)
REM
REM compiler GCC version 4.9.2
REM options -cpp -iprefix /lustre/shared/ucl/apps/gcc/4.9.2/bin/../lib/gcc/x86_64-unknown-linux-gnu/4.9.2/ -mtune=corei7 -march=x86-64 -g -Og
REM COMMAND_LINE
REM seed -92967549 -637964304 1485019833 -323214613 -1594104595 -1261465131 676612256 105957302 -1833416095 2114844610 1384741742 1123907545
REM
REM Se 3|2.1|7|7|9|40:41:32(qc=5)
REM Ag 3|2.2|7|7|9|40U:50:41:42(qc=5)
REM 
CELL 1.54180    4.23873    7.36904    8.00330   90.00000   90.00000   90.00000
LATT -1
SFAC Se Ag 
Se     1  0.2440987703794 -0.0867078202452  0.2182078696462 1.0
Se     1 -0.2440987703794  0.0867078202452 -0.2817921303538 1.0
Se     1 -0.2440987703794  0.4132921797548  0.2182078696462 1.0
Se     1  0.2440987703794 -0.4132921797548 -0.2817921303538 1.0
Ag     2  0.1985680574481 -0.4021395037033  0.0520198215123 1.0
Ag     2 -0.1985680574481  0.4021395037033 -0.4479801784877 1.0
Ag     2 -0.1985680574481  0.0978604962967  0.0520198215123 1.0
Ag     2  0.1985680574481 -0.0978604962967 -0.4479801784877 1.0
Ag     2  0.3010972385273 -0.0733926883226 -0.1131662911584 1.0
Ag     2 -0.3010972385273  0.0733926883226  0.3868337088416 1.0
Ag     2 -0.3010972385273  0.4266073116774 -0.1131662911584 1.0
Ag     2  0.3010972385273 -0.4266073116774  0.3868337088416 1.0
END
