TITL 4Ag2Se_CONSTCUT_NOSYM-200810-173728-b638fd -0.0367 222.428184 -4.61182188E+004 0 0 12 (P1) n - 1
REM
REM Run started: Tue, 11 Aug 2020 07:16:27 +0100 in /lustre/scratch/uccabz1/launch_tmp/launcher_2020-08-10-16-37-26-681824
REM CASTEP 20.1 from code version af48c487+ pr-geom-scf-spinfix Tue Jun 2 15:39:59 2020 +0100
REM Functional PBE for solids (2008) Relativity Koelling-Harmon Dispersion off
REM Cut-off 300.0000 eV Grid scale 2.0000 Gmax 26.6208 1/A FBSC none
REM MP grid 6 5 2 Offset 0.000 0.000 0.000 No. kpts 30 Spacing 0.05
REM Total runtime: 49268.6 s
REM Overall efficiency: 98 %
REM
REM 4Ag2Se_CONSTCUT_NOSYM.cell (04f5f378ecb9f162ba8e0859c4ea5e99)
REM
REM compiler GCC version 4.9.2
REM options -cpp -iprefix /lustre/shared/ucl/apps/gcc/4.9.2/bin/../lib/gcc/x86_64-unknown-linux-gnu/4.9.2/ -mtune=corei7 -march=x86-64 -g -Og
REM COMMAND_LINE
REM seed 1879376793 18662833 -843745167 1074722666 1633319108 -1726725216 -1837120460 995900762 -1046089195 1815236561 -944380347 -609013676
REM
REM Se 3|2.1|7|7|9|40:41:32(qc=5)
REM Ag 3|2.2|7|7|9|40U:50:41:42(qc=5)
REM 
CELL 1.54180    4.12198    5.00220   12.68959   82.21108  104.10076  118.75038
LATT -1
SFAC Se Ag 
Se     1  0.2314560531386 -0.2821357241789  0.4399785252847 1.0
Se     1 -0.1353496684008  0.2664184146461 -0.3119261311255 1.0
Se     1  0.0221545874342  0.0330008889732  0.1781728771023 1.0
Se     1 -0.2775523301458 -0.3827319466340 -0.1023132856417 1.0
Ag     2  0.4713634036560  0.3023928654377  0.4962870305760 1.0
Ag     2  0.0287696346748  0.2210109373142 -0.0635590483130 1.0
Ag     2 -0.2752933439537 -0.5782605049153  0.1144597974318 1.0
Ag     2  0.4566721779330 -0.4123739215130  0.2751649359121 1.0
Ag     2 -0.2296462897808  0.1761591968638  0.3425272885611 1.0
Ag     2 -0.4422156599118 -0.3234331719743 -0.3436831004099 1.0
Ag     2 -0.7041612114189 -0.0318528530388 -0.2121033192239 1.0
Ag     2  0.3855687467751 -0.1754739809808  0.0281424298459 1.0
END
