TITL 4Ag2Se_CONSTCUT_NOSYM-200810-215713-e38250 -0.0810 227.379009 -4.61183211E+004 0 0 12 (P1) n - 1
REM
REM Run started: Tue, 11 Aug 2020 08:33:02 +0100 in /lustre/scratch/uccabz1/launch_tmp/launcher_2020-08-10-20-57-11-661395
REM CASTEP 20.1 from code version af48c487+ pr-geom-scf-spinfix Tue Jun 2 15:39:59 2020 +0100
REM Functional PBE for solids (2008) Relativity Koelling-Harmon Dispersion off
REM Cut-off 300.0000 eV Grid scale 2.0000 Gmax 26.6208 1/A FBSC none
REM MP grid 5 4 3 Offset 0.000 0.000 0.000 No. kpts 30 Spacing 0.05
REM Total runtime: 38294.4 s
REM Overall efficiency: 93 %
REM
REM 4Ag2Se_CONSTCUT_NOSYM.cell (04f5f378ecb9f162ba8e0859c4ea5e99)
REM
REM compiler GCC version 4.9.2
REM options -cpp -iprefix /lustre/shared/ucl/apps/gcc/4.9.2/bin/../lib/gcc/x86_64-unknown-linux-gnu/4.9.2/ -mtune=corei7 -march=x86-64 -g -Og
REM COMMAND_LINE
REM seed 1876406419 -1364025560 1207484105 -795128839 2038231730 791347427 -1637614291 -224604563 -275009996 401314029 -715573672 426947570
REM
REM Se 3|2.1|7|7|9|40:41:32(qc=5)
REM Ag 3|2.2|7|7|9|40U:50:41:42(qc=5)
REM 
CELL 1.54180    4.74493    6.72940    7.68486  109.82732   98.16552   92.50720
LATT -1
SFAC Se Ag 
Se     1 -0.2694006742966 -0.3221648409910  0.0009849426941 1.0
Se     1 -0.0759767200817  0.1142379411650 -0.3821617097285 1.0
Se     1  0.3006284887578 -0.4223867293830  0.4726064295100 1.0
Se     1  0.3058685608563  0.1094840900021  0.0444954375132 1.0
Ag     2 -0.2088692855963 -0.3143882525625  0.3905893688255 1.0
Ag     2  0.4465775238457  0.3081385915556 -0.2468438640303 1.0
Ag     2 -0.0047705422430 -0.4284449088023 -0.2787056682276 1.0
Ag     2 -0.1776442829378  0.2838556842402  0.0775515810609 1.0
Ag     2  0.2609603176859 -0.4245609208805  0.1072471623773 1.0
Ag     2  0.5992920728143  0.2415297808542  0.3889794729263 1.0
Ag     2  0.0635081945522 -0.0053543400142  0.2835754282396 1.0
Ag     2 -0.4167249533567 -0.1043283951836 -0.2389555811604 1.0
END
