TITL 4Ag2Se_CONSTCUT-200811-073702-f08a84 0.0259 222.275775 -4.61171152E+004 0 0 12 (C2221) n - 1
REM
REM Run started: Tue, 11 Aug 2020 09:46:50 +0100 in /lustre/scratch/uccabz1/launch_tmp/launcher_2020-08-11-06-37-00-418069
REM CASTEP 20.1 from code version af48c487+ pr-geom-scf-spinfix Tue Jun 2 15:39:59 2020 +0100
REM Functional PBE for solids (2008) Relativity Koelling-Harmon Dispersion off
REM Cut-off 300.0000 eV Grid scale 2.0000 Gmax 26.6208 1/A FBSC none
REM MP grid 4 4 4 Offset 0.000 0.000 0.000 No. kpts 12 Spacing 0.05
REM Total runtime: 7863 s
REM Overall efficiency: 84 %
REM
REM 4Ag2Se_CONSTCUT.cell (097ebf1fd09fb02df10c18b5c3809341)
REM
REM compiler GCC version 4.9.2
REM options -cpp -iprefix /lustre/shared/ucl/apps/gcc/4.9.2/bin/../lib/gcc/x86_64-unknown-linux-gnu/4.9.2/ -mtune=corei7 -march=x86-64 -g -Og
REM COMMAND_LINE
REM seed -1855632644 -1499841883 319340782 665227510 13357847 -1141790413 353709879 1081513677 -194851727 1504751727 -1919428642 -107443103
REM
REM Se 3|2.1|7|7|9|40:41:32(qc=5)
REM Ag 3|2.2|7|7|9|40U:50:41:42(qc=5)
REM 
CELL 1.54180    5.54461    6.42093    6.42093  103.50305   90.00000   90.00000
LATT -1
SFAC Se Ag 
Se     1  0.2181275326172  0.4320052659594  0.1613657035306 1.0
Se     1 -0.2818724673828 -0.4320052659594 -0.1613657035306 1.0
Se     1  0.2818724673828 -0.1613657035306 -0.4320052659594 1.0
Se     1 -0.2181275326172  0.1613657035306  0.4320052659594 1.0
Ag     2  0.2790456380138  0.2023369519690  0.4403360734783 1.0
Ag     2 -0.2209543619862 -0.2023369519690 -0.4403360734783 1.0
Ag     2  0.2209543619862 -0.4403360734783 -0.2023369519690 1.0
Ag     2 -0.2790456380138  0.4403360734783  0.2023369519690 1.0
Ag     2 -0.0011586463686 -0.1481129119342  0.1423054774367 1.0
Ag     2 -0.5011586463686  0.1481129119342 -0.1423054774367 1.0
Ag     2  0.5011586463686 -0.1423054774367  0.1481129119342 1.0
Ag     2  0.0011586463686  0.1423054774367 -0.1481129119342 1.0
END
