TITL 4Ag2Se_CONSTCUT_NOSYM-200810-162133-df488a 0.0263 218.552942 -4.61185105E+004 0 0 12 (P1) n - 1
REM
REM Run started: Tue, 11 Aug 2020 01:38:44 +0100 in /lustre/scratch/uccabz1/launch_tmp/launcher_2020-08-10-15-21-31-898940
REM CASTEP 20.1 from code version af48c487+ pr-geom-scf-spinfix Tue Jun 2 15:39:59 2020 +0100
REM Functional PBE for solids (2008) Relativity Koelling-Harmon Dispersion off
REM Cut-off 300.0000 eV Grid scale 2.0000 Gmax 26.6208 1/A FBSC none
REM MP grid 4 4 4 Offset 0.000 0.000 0.000 No. kpts 32 Spacing 0.05
REM Total runtime: 33623.8 s
REM Overall efficiency: 98 %
REM
REM 4Ag2Se_CONSTCUT_NOSYM.cell (04f5f378ecb9f162ba8e0859c4ea5e99)
REM
REM compiler GCC version 4.9.2
REM options -cpp -iprefix /lustre/shared/ucl/apps/gcc/4.9.2/bin/../lib/gcc/x86_64-unknown-linux-gnu/4.9.2/ -mtune=corei7 -march=x86-64 -g -Og
REM COMMAND_LINE
REM seed -1194867435 930765551 510860361 141442443 838890178 -1186501008 -394979872 1934062427 -757338943 -432405800 1908434541 -539065912
REM
REM Se 3|2.1|7|7|9|40:41:32(qc=5)
REM Ag 3|2.2|7|7|9|40U:50:41:42(qc=5)
REM 
CELL 1.54180    6.55346    6.57563    6.47290  119.38583  109.15533   95.22890
LATT -1
SFAC Se Ag 
Se     1 -0.3847491904756  0.4873618537028  0.3380300026000 1.0
Se     1 -0.3909100429425 -0.1083694441824  0.0136662922863 1.0
Se     1  0.2247999324073  0.0738408935446  0.3743258287100 1.0
Se     1 -0.0005849701312  0.3044222048177 -0.0184328719541 1.0
Ag     2 -0.0461951473935 -0.1910515009368 -0.1639525357066 1.0
Ag     2  0.2910066683473 -0.3844124037522  0.0010259391022 1.0
Ag     2 -0.3748873633692 -0.5654853764001 -0.1896236541428 1.0
Ag     2 -0.0717070782342  0.7722391730879  0.3584791064970 1.0
Ag     2  0.3187753403509  0.0975187506176 -0.1557853926710 1.0
Ag     2  0.2587248222075  0.5633261000425  0.5174603506740 1.0
Ag     2 -0.1081090640637  0.2774927858995  0.5184361416681 1.0
Ag     2 -0.4128050067031 -0.0602356364410 -0.4445334070631 1.0
END
