TITL 4Ag2Se_CONSTCUT-200811-043524-ffd67a -0.0274 240.088817 -4.61181234E+004 0 0 12 (R3) n - 1
REM
REM Run started: Tue, 11 Aug 2020 06:07:08 +0100 in /lustre/scratch/uccabz1/launch_tmp/launcher_2020-08-11-03-35-22-460505
REM CASTEP 20.1 from code version af48c487+ pr-geom-scf-spinfix Tue Jun 2 15:39:59 2020 +0100
REM Functional PBE for solids (2008) Relativity Koelling-Harmon Dispersion off
REM Cut-off 300.0000 eV Grid scale 2.0000 Gmax 26.6208 1/A FBSC none
REM MP grid 4 4 4 Offset 0.000 0.000 0.000 No. kpts 12 Spacing 0.05
REM Total runtime: 5572.16 s
REM Overall efficiency: 84.3333 %
REM
REM 4Ag2Se_CONSTCUT.cell (097ebf1fd09fb02df10c18b5c3809341)
REM
REM compiler GCC version 4.9.2
REM options -cpp -iprefix /lustre/shared/ucl/apps/gcc/4.9.2/bin/../lib/gcc/x86_64-unknown-linux-gnu/4.9.2/ -mtune=corei7 -march=x86-64 -g -Og
REM COMMAND_LINE
REM seed -28564804 1308101130 1420527227 1413018536 -1866391150 -999870386 -329178262 -1665052758 -1253698870 1423499785 967283517 1171540544
REM
REM Se 3|2.1|7|7|9|40:41:32(qc=5)
REM Ag 3|2.2|7|7|9|40U:50:41:42(qc=5)
REM 
CELL 1.54180    6.21592    6.21592    6.21592   89.14139   89.14139   89.14139
LATT -1
SFAC Se Ag 
Se     1 -0.2418637299525 -0.1811093765889  0.2559109348882 1.0
Se     1 -0.1811093765889  0.2559109348882 -0.2418637299525 1.0
Se     1  0.2559109348882 -0.2418637299525 -0.1811093765889 1.0
Se     1  0.3137234562142  0.3137234562142  0.3137234562142 1.0
Ag     2  0.0093438142606  0.4542935045963  0.0621247166243 1.0
Ag     2  0.4542935045963  0.0621247166243  0.0093438142606 1.0
Ag     2  0.0621247166243  0.0093438142606  0.4542935045963 1.0
Ag     2 -0.4436645585087 -0.4995162923057  0.0111021972779 1.0
Ag     2 -0.4995162923057  0.0111021972779 -0.4436645585087 1.0
Ag     2  0.0111021972779 -0.4436645585087 -0.4995162923057 1.0
Ag     2 -0.1743861298031 -0.1743861298031 -0.1743861298031 1.0
Ag     2 -0.4440195367026 -0.4440195367026 -0.4440195367026 1.0
END
