TITL 4Ag2Se_CONSTCUT_NOSYM-200810-180741-711fba -0.1303 218.475237 -4.61183565E+004 0 0 12 (P1) n - 1
REM
REM Run started: Tue, 11 Aug 2020 07:20:26 +0100 in /lustre/scratch/uccabz1/launch_tmp/launcher_2020-08-10-18-37-35-590132
REM CASTEP 20.1 from code version af48c487+ pr-geom-scf-spinfix Tue Jun 2 15:39:59 2020 +0100
REM Functional PBE for solids (2008) Relativity Koelling-Harmon Dispersion off
REM Cut-off 300.0000 eV Grid scale 2.0000 Gmax 26.6208 1/A FBSC none
REM MP grid 5 3 3 Offset 0.000 0.000 0.000 No. kpts 23 Spacing 0.05
REM Total runtime: 44347.5 s
REM Overall efficiency: 97.0833 %
REM
REM
REM
REM compiler GCC version 4.9.2
REM options -cpp -iprefix /lustre/shared/ucl/apps/gcc/4.9.2/bin/../lib/gcc/x86_64-unknown-linux-gnu/4.9.2/ -mtune=corei7 -march=x86-64 -g -Og
REM COMMAND_LINE
REM seed -1148453351 209952749 -912463213 -1066804442 -1808686656 622769614 -238511324 956722254 1345933999 2110936946 -1270716507 -2091706950
REM
REM Se 3|2.1|7|7|9|40:41:32(qc=5)
REM Ag 3|2.2|7|7|9|40U:50:41:42(qc=5)
REM 
CELL 1.54180    3.96128    6.84949    8.22137   87.27313   90.63237   78.73403
LATT -1
SFAC Se Ag 
Se     1 -0.1198940996016  0.2718138973524 -0.2646427725165 1.0
Se     1 -0.1953006319894 -0.3381377415857  0.4533582575761 1.0
Se     1  0.6084872351893 -0.3297653626923 -0.0326583713926 1.0
Se     1 -0.0291102098884  0.2517613173029  0.2264142258037 1.0
Ag     2 -0.4945589642155 -0.0357952832416  0.2661139875717 1.0
Ag     2  0.0115703560749 -0.0377644853191  0.0091882512870 1.0
Ag     2 -0.0080439656545 -0.0076218942346 -0.4862887723167 1.0
Ag     2  0.2444285883519  0.6022369176202  0.2194664131611 1.0
Ag     2  0.1783342196954 -0.3598230558949 -0.2711524981097 1.0
Ag     2 -0.5054242567319 -0.0188528785640 -0.2402800111046 1.0
Ag     2  0.4148351339378  0.2916141295782 -0.0145330880302 1.0
Ag     2  0.3943575948319  0.3199984396785 -0.5094916219293 1.0
END
