TITL 4Ag2Se_CONSTCUT_NOSYM-200810-171113-b3e370 -0.0183 231.646627 -4.61184026E+004 0 0 12 (P1) n - 1
REM
REM Run started: Tue, 11 Aug 2020 01:47:04 +0100 in /lustre/scratch/uccabz1/launch_tmp/launcher_2020-08-10-18-13-32-216645
REM CASTEP 20.1 from code version af48c487+ pr-geom-scf-spinfix Tue Jun 2 15:39:59 2020 +0100
REM Functional PBE for solids (2008) Relativity Koelling-Harmon Dispersion off
REM Cut-off 300.0000 eV Grid scale 2.0000 Gmax 26.6208 1/A FBSC none
REM MP grid 5 3 3 Offset 0.000 0.000 0.000 No. kpts 23 Spacing 0.05
REM Total runtime: 23715.7 s
REM Overall efficiency: 79.2727 %
REM
REM
REM
REM compiler GCC version 4.9.2
REM options -cpp -iprefix /lustre/shared/ucl/apps/gcc/4.9.2/bin/../lib/gcc/x86_64-unknown-linux-gnu/4.9.2/ -mtune=corei7 -march=x86-64 -g -Og
REM COMMAND_LINE
REM seed -1973540184 538861796 1606664562 495856314 1649498664 -912620548 1735905807 -1183254292 1297039582 -2065584382 -1181822901 -2126090951
REM
REM Se 3|2.1|7|7|9|40:41:32(qc=5)
REM Ag 3|2.2|7|7|9|40U:50:41:42(qc=5)
REM 
CELL 1.54180    4.34594    7.47730    7.38976   84.56368   85.43846   76.09088
LATT -1
SFAC Se Ag 
Se     1 -0.4120857850333  0.0999126879915 -0.1660765276065 1.0
Se     1  0.3240576489009 -0.0670367648854  0.3861990080133 1.0
Se     1  0.0972532099936 -0.4196910378717  0.0563217738367 1.0
Se     1 -0.0542557798292  0.4849093379396 -0.4555908076989 1.0
Ag     2 -0.0068454056005  0.3016326569664 -0.1245198381371 1.0
Ag     2  0.4281917018458  0.5652456816793 -0.2494207561498 1.0
Ag     2 -0.4948750016637 -0.2038307550252  0.0171706269477 1.0
Ag     2  0.4802027818806 -0.4465253134908  0.3324866552612 1.0
Ag     2 -0.2523543409902  0.1764755270096  0.4720120498855 1.0
Ag     2 -0.1116042443608  0.0147364687240  0.1369530980945 1.0
Ag     2 -0.1622483672354 -0.1810336304676 -0.3514189956165 1.0
Ag     2  0.2652045820920  0.2558261414302  0.2204597131700 1.0
END
