TITL 4Ag2Se_CONSTCUT-200811-073629-add5bb 0.0270 223.148391 -4.61180721E+004 0 0 12 (C2) n - 1
REM
REM Run started: Tue, 11 Aug 2020 12:47:30 +0100 in /lustre/scratch/uccabz1/launch_tmp/launcher_2020-08-11-06-36-27-660961
REM CASTEP 20.1 from code version af48c487+ pr-geom-scf-spinfix Tue Jun 2 15:39:59 2020 +0100
REM Functional PBE for solids (2008) Relativity Koelling-Harmon Dispersion off
REM Cut-off 300.0000 eV Grid scale 2.0000 Gmax 26.6208 1/A FBSC none
REM MP grid 5 5 2 Offset 0.000 0.000 0.000 No. kpts 15 Spacing 0.05
REM Total runtime: 18771.7 s
REM Overall efficiency: 88.5 %
REM
REM 4Ag2Se_CONSTCUT.cell (097ebf1fd09fb02df10c18b5c3809341)
REM
REM compiler GCC version 4.9.2
REM options -cpp -iprefix /lustre/shared/ucl/apps/gcc/4.9.2/bin/../lib/gcc/x86_64-unknown-linux-gnu/4.9.2/ -mtune=corei7 -march=x86-64 -g -Og
REM COMMAND_LINE
REM seed -243162722 818815128 893285388 -1113269981 1182102968 -2014158090 1737901704 941745792 536476008 2132230160 1844640491 -2144489263
REM
REM Se 3|2.1|7|7|9|40:41:32(qc=5)
REM Ag 3|2.2|7|7|9|40U:50:41:42(qc=5)
REM 
CELL 1.54180    4.48274    4.48274   12.41118   80.13518   80.13518   66.06744
LATT -1
SFAC Se Ag 
Se     1 -0.2516450613799 -0.0290622501604  0.4035415664645 1.0
Se     1  0.0290622501604  0.2516450613799 -0.4035415664645 1.0
Se     1 -0.5208784897138 -0.2700087677198 -0.1332436731012 1.0
Se     1  0.2700087677198  0.5208784897138  0.1332436731012 1.0
Ag     2  0.6624948003703 -0.0740616689640  0.0444876880054 1.0
Ag     2  0.0740616689640 -0.6624948003703 -0.0444876880054 1.0
Ag     2  0.1161421697462  0.3423053315008  0.3704139042815 1.0
Ag     2 -0.3423053315008 -0.1161421697462 -0.3704139042815 1.0
Ag     2 -0.0882127805519  0.1543381609009  0.1886450645834 1.0
Ag     2 -0.1543381609009  0.0882127805519 -0.1886450645834 1.0
Ag     2 -0.5061788672791 -0.2720030343655  0.2855587739342 1.0
Ag     2  0.2720030343655  0.5061788672791 -0.2855587739342 1.0
END
