TITL 4Ag2Se_CONSTCUT_NOSYM-200810-230351-c8caef -0.0248 228.700523 -4.61183901E+004 0 0 12 (P1) n - 1
REM
REM Run started: Tue, 11 Aug 2020 14:13:15 +0100 in /lustre/scratch/uccabz1/launch_tmp/launcher_2020-08-10-23-25-06-537152
REM CASTEP 20.1 from code version af48c487+ pr-geom-scf-spinfix Tue Jun 2 15:39:59 2020 +0100
REM Functional PBE for solids (2008) Relativity Koelling-Harmon Dispersion off
REM Cut-off 300.0000 eV Grid scale 2.0000 Gmax 26.6208 1/A FBSC none
REM MP grid 5 4 3 Offset 0.000 0.000 0.000 No. kpts 30 Spacing 0.05
REM Total runtime: 54322.6 s
REM Overall efficiency: 98.75 %
REM
REM
REM
REM compiler GCC version 4.9.2
REM options -cpp -iprefix /lustre/shared/ucl/apps/gcc/4.9.2/bin/../lib/gcc/x86_64-unknown-linux-gnu/4.9.2/ -mtune=corei7 -march=x86-64 -g -Og
REM COMMAND_LINE
REM seed -1035120072 -27081509 -679640433 390883826 -748491622 215691704 1790597893 -1001541935 -448776565 -1540303412 -1663911082 -917483837
REM
REM Se 3|2.1|7|7|9|40:41:32(qc=5)
REM Ag 3|2.2|7|7|9|40U:50:41:42(qc=5)
REM 
CELL 1.54180    4.69355    8.09352    7.34096  107.86596   88.86730  119.25498
LATT -1
SFAC Se Ag 
Se     1  0.3464415003171 -0.2485933269075  0.0958339188491 1.0
Se     1  0.0850637285998  0.2423386756968  0.4751305071253 1.0
Se     1 -0.0490292268458 -0.3244772370543 -0.4607498613232 1.0
Se     1 -0.4088810077912  0.3340241146965  0.0530641708440 1.0
Ag     2 -0.1759146095218  0.0985221018556  0.0886961398985 1.0
Ag     2 -0.4212745789638 -0.0412161311248 -0.4449784838356 1.0
Ag     2 -0.3506888862489  0.3517447945721 -0.3261009682364 1.0
Ag     2  0.4972177706740 -0.3080748458388 -0.2489044710884 1.0
Ag     2  0.1246754729209  0.3467306160532 -0.1285063516768 1.0
Ag     2  0.2018145632996 -0.0287055599696 -0.1464661248617 1.0
Ag     2 -0.0418994580911 -0.1335554277314  0.2717845326261 1.0
Ag     2  0.3299637316509 -0.4692757742478  0.3087129916793 1.0
END
