TITL 4Ag2Se_CONSTCUT_NOSYM-200810-175612-82dda2 -0.0379 230.203645 -4.61182033E+004 0 0 12 (P1) n - 1
REM
REM Run started: Tue, 11 Aug 2020 06:11:41 +0100 in /lustre/scratch/uccabz1/launch_tmp/launcher_2020-08-11-00-56-47-284434
REM CASTEP 20.1 from code version af48c487+ pr-geom-scf-spinfix Tue Jun 2 15:39:59 2020 +0100
REM Functional PBE for solids (2008) Relativity Koelling-Harmon Dispersion off
REM Cut-off 300.0000 eV Grid scale 2.0000 Gmax 26.6208 1/A FBSC none
REM MP grid 5 4 3 Offset 0.000 0.000 0.000 No. kpts 30 Spacing 0.05
REM Total runtime: 17799.1 s
REM Overall efficiency: 98 %
REM
REM
REM
REM compiler GCC version 4.9.2
REM options -cpp -iprefix /lustre/shared/ucl/apps/gcc/4.9.2/bin/../lib/gcc/x86_64-unknown-linux-gnu/4.9.2/ -mtune=corei7 -march=x86-64 -g -Og
REM COMMAND_LINE
REM seed 435945453 -1671768172 -206336949 193927934 -925851502 -187847439 -264320250 -1878038416 -894666720 1377921243 -1069356916 503462240
REM
REM Se 3|2.1|7|7|9|40:41:32(qc=5)
REM Ag 3|2.2|7|7|9|40U:50:41:42(qc=5)
REM 
CELL 1.54180    4.68995    5.61911    8.80571   97.14206   91.24033   90.08667
LATT -1
SFAC Se Ag 
Se     1 -0.0232211667315  0.0429813483709  0.1420409081479 1.0
Se     1  0.2006598275849  0.5069013597214 -0.0733444091526 1.0
Se     1 -0.1097522378503 -0.0935564376790 -0.3053081435652 1.0
Se     1  0.3823176510614 -0.3360817413630  0.3779494084813 1.0
Ag     2 -0.1178041284376 -0.0566676618205  0.4073563515805 1.0
Ag     2 -0.6131391430378  0.2126282752293 -0.5553250983353 1.0
Ag     2 -0.1248837411141  0.4444406071130  0.3162482356028 1.0
Ag     2 -0.1047843224816  0.3626255505894 -0.3612626575675 1.0
Ag     2  0.4889668057295  0.2300982137319  0.0929953307476 1.0
Ag     2  0.3944296004485 -0.3693626882649 -0.3282035594068 1.0
Ag     2 -0.5810596131174  0.1337744971310 -0.2312083192500 1.0
Ag     2 -0.3263105320539 -0.2716203227594 -0.0271430472826 1.0
END
