TITL 4Ag2Se_CONSTCUT_NOSYM-200810-224909-06bea6 -0.1029 222.448527 -4.61184758E+004 0 0 12 (P1) n - 1
REM
REM Run started: Tue, 11 Aug 2020 09:43:01 +0100 in /lustre/scratch/uccabz1/launch_tmp/launcher_2020-08-10-21-49-07-523443
REM CASTEP 20.1 from code version af48c487+ pr-geom-scf-spinfix Tue Jun 2 15:39:59 2020 +0100
REM Functional PBE for solids (2008) Relativity Koelling-Harmon Dispersion off
REM Cut-off 300.0000 eV Grid scale 2.0000 Gmax 26.6208 1/A FBSC none
REM MP grid 5 4 3 Offset 0.000 0.000 0.000 No. kpts 30 Spacing 0.05
REM Total runtime: 43803.1 s
REM Overall efficiency: 97.75 %
REM
REM 4Ag2Se_CONSTCUT_NOSYM.cell (04f5f378ecb9f162ba8e0859c4ea5e99)
REM
REM compiler GCC version 4.9.2
REM options -cpp -iprefix /lustre/shared/ucl/apps/gcc/4.9.2/bin/../lib/gcc/x86_64-unknown-linux-gnu/4.9.2/ -mtune=corei7 -march=x86-64 -g -Og
REM COMMAND_LINE
REM seed -2029011573 2021714116 949057604 584493374 -635601917 -882952009 -1584299789 -103375054 -854915996 -1252871055 1243353003 -1589620293
REM
REM Se 3|2.1|7|7|9|40:41:32(qc=5)
REM Ag 3|2.2|7|7|9|40U:50:41:42(qc=5)
REM 
CELL 1.54180    4.47263    6.91289    8.24398   75.21146   65.01868   88.43837
LATT -1
SFAC Se Ag 
Se     1  0.4438554427170 -0.0470358328461  0.2803144949161 1.0
Se     1 -0.0582100901658  0.3121802192625 -0.1744778511881 1.0
Se     1 -0.1162749433000  0.3490505641438  0.3013926436454 1.0
Se     1 -0.4852409996324 -0.1190790134566 -0.1654584100667 1.0
Ag     2 -0.2089109940207 -0.1386354774001  0.4872054250480 1.0
Ag     2  0.2280486142805  0.1420939841130  0.0391838037088 1.0
Ag     2 -0.4896415119628  0.5083605873883  0.0512433666074 1.0
Ag     2  0.2254658327153  0.1288523142069 -0.4446498303287 1.0
Ag     2 -0.0632326492215 -0.2655403083547  0.1408616285925 1.0
Ag     2  0.1069222517380 -0.2921522833490 -0.2526347165325 1.0
Ag     2  0.2545173983218 -0.4366033887496  0.4078607638255 1.0
Ag     2 -0.4204584514693  0.4239099350415 -0.3607037182277 1.0
END
