TITL 4Ag2Se_CONSTCUT_NOSYM-200810-175713-a9f63e 0.0379 223.566826 -4.61184954E+004 0 0 12 (P1) n - 1
REM
REM Run started: Tue, 11 Aug 2020 01:55:55 +0100 in /lustre/scratch/uccabz1/launch_tmp/launcher_2020-08-10-16-57-12-059493
REM CASTEP 20.1 from code version af48c487+ pr-geom-scf-spinfix Tue Jun 2 15:39:59 2020 +0100
REM Functional PBE for solids (2008) Relativity Koelling-Harmon Dispersion off
REM Cut-off 300.0000 eV Grid scale 2.0000 Gmax 26.6208 1/A FBSC none
REM MP grid 5 3 3 Offset 0.000 0.000 0.000 No. kpts 23 Spacing 0.05
REM Total runtime: 31831.7 s
REM Overall efficiency: 79.6667 %
REM
REM 4Ag2Se_CONSTCUT_NOSYM.cell (04f5f378ecb9f162ba8e0859c4ea5e99)
REM
REM compiler GCC version 4.9.2
REM options -cpp -iprefix /lustre/shared/ucl/apps/gcc/4.9.2/bin/../lib/gcc/x86_64-unknown-linux-gnu/4.9.2/ -mtune=corei7 -march=x86-64 -g -Og
REM COMMAND_LINE
REM seed -1173659140 281840472 1546944631 1790574873 1707253948 -656322398 -514893470 466866532 1433027710 -464802045 -1038438629 -1419074718
REM
REM Se 3|2.1|7|7|9|40:41:32(qc=5)
REM Ag 3|2.2|7|7|9|40U:50:41:42(qc=5)
REM 
CELL 1.54180    4.58934    7.18122    7.16319  100.47875   96.94843  102.38844
LATT -1
SFAC Se Ag 
Se     1 -0.0219204933348 -0.3718833188975  0.3556834688172 1.0
Se     1 -0.1612158163219  0.2573342804236 -0.3966167600236 1.0
Se     1  0.2499161291417  0.2341850421003  0.1021343261404 1.0
Se     1  0.5117961599291 -0.3223077561004 -0.1927937497301 1.0
Ag     2  0.0838770645277 -0.1672496558335 -0.0694682031868 1.0
Ag     2  0.3484850965257  0.1289252079867 -0.2555770577863 1.0
Ag     2 -0.2652560410095 -0.1143599837392 -0.4367715753920 1.0
Ag     2 -0.3057718554679  0.0495901508566  0.1117371325924 1.0
Ag     2  0.3839621497856  0.4186889453736 -0.5218536124611 1.0
Ag     2  0.4550086147955 -0.3360463366802  0.1744117744032 1.0
Ag     2 -0.1620671480578  0.4375356645767 -0.0277979243178 1.0
Ag     2  0.2188770394866 -0.0109930400668  0.3470268809445 1.0
END
