TITL 4Ag2Se_CONSTCUT_NOSYM-200811-024707-932d4d 0.1004 220.798647 -4.61187612E+004 0 0 12 (P1) n - 1
REM
REM Run started: Tue, 11 Aug 2020 10:59:31 +0100 in /lustre/scratch/uccabz1/launch_tmp/launcher_2020-08-11-01-47-06-141991
REM CASTEP 20.1 from code version af48c487+ pr-geom-scf-spinfix Tue Jun 2 15:39:59 2020 +0100
REM Functional PBE for solids (2008) Relativity Koelling-Harmon Dispersion off
REM Cut-off 300.0000 eV Grid scale 2.0000 Gmax 26.6208 1/A FBSC none
REM MP grid 5 3 3 Offset 0.000 0.000 0.000 No. kpts 23 Spacing 0.05
REM Total runtime: 32539.4 s
REM Overall efficiency: 88 %
REM
REM 4Ag2Se_CONSTCUT_NOSYM.cell (04f5f378ecb9f162ba8e0859c4ea5e99)
REM
REM compiler GCC version 4.9.2
REM options -cpp -iprefix /lustre/shared/ucl/apps/gcc/4.9.2/bin/../lib/gcc/x86_64-unknown-linux-gnu/4.9.2/ -mtune=corei7 -march=x86-64 -g -Og
REM COMMAND_LINE
REM seed 131303194 1663664718 -96484205 -75801328 1475575816 -221737405 1977547574 1702703236 -1256845131 -1182394324 1828419720 664507966
REM
REM Se 3|2.1|7|7|9|40:41:32(qc=5)
REM Ag 3|2.2|7|7|9|40U:50:41:42(qc=5)
REM 
CELL 1.54180    4.51314    6.83696    7.15590   90.22666   90.28920   89.91419
LATT -1
SFAC Se Ag 
Se     1 -0.1738220660002 -0.2994758252192  0.0519187614523 1.0
Se     1  0.5918094543976  0.2018751670566 -0.0979043054037 1.0
Se     1  0.3331353567173  0.2129566762536  0.4011524659339 1.0
Se     1  0.0825922890022 -0.2847899172009 -0.4469975537735 1.0
Ag     2 -0.2751419161237 -0.0561987936345  0.3484517708873 1.0
Ag     2 -0.4698702652290 -0.1688414699862 -0.2447666645023 1.0
Ag     2 -0.0966238831131  0.3283685411997  0.1871247200130 1.0
Ag     2  0.0284418268950  0.0906505183897 -0.3107632949235 1.0
Ag     2  0.2112162062679 -0.5195376104400 -0.1431791408292 1.0
Ag     2  0.2207675574300 -0.0283499331706  0.0904623193460 1.0
Ag     2 -0.6017289098750 -0.4144698977869  0.2695653152321 1.0
Ag     2 -0.2959422503691  0.4385826445388 -0.3995993934324 1.0
END
