TITL 4Ag2Se_CONSTCUT-200811-085549-c21d7a 0.0396 223.097406 -4.61184949E+004 0 0 12 (Pbcm) n - 1
REM
REM Run started: Tue, 11 Aug 2020 09:59:58 +0100 in /lustre/scratch/uccabz1/launch_tmp/launcher_2020-08-11-07-55-47-885957
REM CASTEP 20.1 from code version af48c487+ pr-geom-scf-spinfix Tue Jun 2 15:39:59 2020 +0100
REM Functional PBE for solids (2008) Relativity Koelling-Harmon Dispersion off
REM Cut-off 300.0000 eV Grid scale 2.0000 Gmax 26.6208 1/A FBSC none
REM MP grid 5 3 3 Offset 0.000 0.000 0.000 No. kpts 12 Spacing 0.05
REM Total runtime: 3909.21 s
REM Overall efficiency: 81 %
REM
REM 4Ag2Se_CONSTCUT.cell (097ebf1fd09fb02df10c18b5c3809341)
REM
REM compiler GCC version 4.9.2
REM options -cpp -iprefix /lustre/shared/ucl/apps/gcc/4.9.2/bin/../lib/gcc/x86_64-unknown-linux-gnu/4.9.2/ -mtune=corei7 -march=x86-64 -g -Og
REM COMMAND_LINE
REM seed 1687482566 -1403887712 -1864705623 1514029695 -328546170 254020846 -652310075 1648874131 -984879109 -524846469 -1114683906 874441748
REM
REM Se 3|2.1|7|7|9|40:41:32(qc=5)
REM Ag 3|2.2|7|7|9|40U:50:41:42(qc=5)
REM 
CELL 1.54180    4.67109    6.82103    7.00208   90.00000   90.00000   90.00000
LATT -1
SFAC Se Ag 
Se     1  0.2478308461758 -0.2923150342637  0.3011511910818 1.0
Se     1 -0.2478308461758 -0.2923150342637 -0.3011511910818 1.0
Se     1 -0.2521691538242  0.2923150342637  0.1988488089182 1.0
Se     1  0.2521691538242  0.2923150342637 -0.1988488089182 1.0
Ag     2  0.2504412554717 -0.3225100654931 -0.1011192725673 1.0
Ag     2 -0.2504412554717 -0.3225100654931  0.1011192725673 1.0
Ag     2 -0.2495587445283  0.3225100654931 -0.3988807274327 1.0
Ag     2  0.2495587445283  0.3225100654931  0.3988807274327 1.0
Ag     2 -0.2501158972261 -0.0416145960395  0.3876032168339 1.0
Ag     2  0.2501158972261 -0.0416145960395 -0.3876032168339 1.0
Ag     2  0.2498841027739  0.0416145960395  0.1123967831661 1.0
Ag     2 -0.2498841027739  0.0416145960395 -0.1123967831661 1.0
END
