TITL 4Ag2Se_CONSTCUT_NOSYM-200810-201157-b4b7cc 0.1040 216.945919 -4.61182549E+004 0 0 12 (P1) n - 1
REM
REM Run started: Tue, 11 Aug 2020 08:04:54 +0100 in /lustre/scratch/uccabz1/launch_tmp/launcher_2020-08-10-19-11-55-425296
REM CASTEP 20.1 from code version af48c487+ pr-geom-scf-spinfix Tue Jun 2 15:39:59 2020 +0100
REM Functional PBE for solids (2008) Relativity Koelling-Harmon Dispersion off
REM Cut-off 300.0000 eV Grid scale 2.0000 Gmax 26.6208 1/A FBSC none
REM MP grid 4 4 4 Offset 0.000 0.000 0.000 No. kpts 32 Spacing 0.05
REM Total runtime: 48219.7 s
REM Overall efficiency: 98.6667 %
REM
REM 4Ag2Se_CONSTCUT_NOSYM.cell (04f5f378ecb9f162ba8e0859c4ea5e99)
REM
REM compiler GCC version 4.9.2
REM options -cpp -iprefix /lustre/shared/ucl/apps/gcc/4.9.2/bin/../lib/gcc/x86_64-unknown-linux-gnu/4.9.2/ -mtune=corei7 -march=x86-64 -g -Og
REM COMMAND_LINE
REM seed -1682649400 1921421441 -1830111086 -681429066 -943773527 1748535202 658488985 826068201 492817579 2121846549 2042963120 -1517671986
REM
REM Se 3|2.1|7|7|9|40:41:32(qc=5)
REM Ag 3|2.2|7|7|9|40U:50:41:42(qc=5)
REM 
CELL 1.54180    6.39427    6.44777    6.35976   95.58296  114.96473  108.59135
LATT -1
SFAC Se Ag 
Se     1 -0.0333198151345  0.2100874782762  0.0738846637824 1.0
Se     1 -0.3876491430303 -0.4765855314169 -0.1096054278069 1.0
Se     1  0.2814983629433 -0.1393435688122 -0.3267573195586 1.0
Se     1 -0.3898841937047 -0.0855840619913  0.2854392753706 1.0
Ag     2  0.1152082991447 -0.1338876256825  0.2142366358537 1.0
Ag     2 -0.3721328487428  0.2281522738483 -0.4107843832040 1.0
Ag     2 -0.1343825583229  0.5016938957970  0.3634791424645 1.0
Ag     2  0.1209230306799  0.2082541396216 -0.4444730244833 1.0
Ag     2  0.3751869819309  0.1916560493200  0.0560054602430 1.0
Ag     2  0.1464703391625 -0.4552295917305 -0.1107478971793 1.0
Ag     2 -0.1266499707034 -0.1606920034005 -0.2742005215020 1.0
Ag     2  0.3858325157772  0.5466615461708  0.3882877960199 1.0
END
