TITL 4Ag2Se_CONSTCUT-200811-064845-f8ecdc -0.0803 228.568322 -4.61182269E+004 0 0 12 (P-1) n - 1
REM
REM Run started: Tue, 11 Aug 2020 19:37:41 +0100 in /lustre/scratch/uccabz1/launch_tmp/launcher_2020-08-11-05-48-43-527083
REM CASTEP 20.1 from code version af48c487+ pr-geom-scf-spinfix Tue Jun 2 15:39:59 2020 +0100
REM Functional PBE for solids (2008) Relativity Koelling-Harmon Dispersion off
REM Cut-off 300.0000 eV Grid scale 2.0000 Gmax 26.6208 1/A FBSC none
REM MP grid 5 5 3 Offset 0.000 0.000 0.000 No. kpts 38 Spacing 0.05
REM Total runtime: 46327.1 s
REM Overall efficiency: 96 %
REM
REM 4Ag2Se_CONSTCUT.cell (097ebf1fd09fb02df10c18b5c3809341)
REM
REM compiler GCC version 4.9.2
REM options -cpp -iprefix /lustre/shared/ucl/apps/gcc/4.9.2/bin/../lib/gcc/x86_64-unknown-linux-gnu/4.9.2/ -mtune=corei7 -march=x86-64 -g -Og
REM COMMAND_LINE
REM seed -86064282 -1798253659 -318349693 -1146097055 -2061315457 85458853 -2125617485 -1554860482 -816040804 54486115 936592890 -1068399558
REM
REM Se 3|2.1|7|7|9|40:41:32(qc=5)
REM Ag 3|2.2|7|7|9|40U:50:41:42(qc=5)
REM 
CELL 1.54180    4.56338    6.61306   10.95661  131.34918  111.63473   70.19177
LATT -1
SFAC Se Ag 
Se     1 -0.2756247225382 -0.4560005783736 -0.1641789362683 1.0
Se     1  0.2756247225382  0.4560005783736  0.1641789362683 1.0
Se     1 -0.0265371285851  0.1929368092171  0.4400911944001 1.0
Se     1  0.0265371285851 -0.1929368092171 -0.4400911944001 1.0
Ag     2  0.2992282467575  0.3020329176334  0.3403227596514 1.0
Ag     2 -0.2992282467575 -0.3020329176334 -0.3403227596514 1.0
Ag     2  0.2537175737076 -0.0379922933513 -0.1379948270505 1.0
Ag     2 -0.2537175737076  0.0379922933513  0.1379948270505 1.0
Ag     2  0.2823833613844 -0.2818670730609  0.0092876343380 1.0
Ag     2 -0.2823833613844  0.2818670730609 -0.0092876343380 1.0
Ag     2  0.3606082348530 -0.8219400437863 -0.3121186308495 1.0
Ag     2 -0.3606082348530  0.8219400437863  0.3121186308495 1.0
END
