TITL 4Ag2Se_CONSTCUT-200811-152132-a12725 0.0270 228.075429 -4.61170822E+004 0 0 12 (Pcca) n - 1
REM
REM Run started: Tue, 11 Aug 2020 16:14:54 +0100 in /lustre/scratch/uccabz1/launch_tmp/launcher_2020-08-11-14-21-31-095469
REM CASTEP 20.1 from code version af48c487+ pr-geom-scf-spinfix Tue Jun 2 15:39:59 2020 +0100
REM Functional PBE for solids (2008) Relativity Koelling-Harmon Dispersion off
REM Cut-off 300.0000 eV Grid scale 2.0000 Gmax 26.6208 1/A FBSC none
REM MP grid 6 3 3 Offset 0.000 0.000 0.000 No. kpts 12 Spacing 0.05
REM Total runtime: 3260.33 s
REM Overall efficiency: 78.5 %
REM
REM 4Ag2Se_CONSTCUT.cell (097ebf1fd09fb02df10c18b5c3809341)
REM
REM compiler GCC version 4.9.2
REM options -cpp -iprefix /lustre/shared/ucl/apps/gcc/4.9.2/bin/../lib/gcc/x86_64-unknown-linux-gnu/4.9.2/ -mtune=corei7 -march=x86-64 -g -Og
REM COMMAND_LINE
REM seed 2024943959 1125648840 -431990168 2101808902 -1167307811 -654423206 -1575931192 -705363302 -755992392 143543954 886414527 -820435009
REM
REM Se 3|2.1|7|7|9|40:41:32(qc=5)
REM Ag 3|2.2|7|7|9|40U:50:41:42(qc=5)
REM 
CELL 1.54180    3.60317    7.30184    8.66884   90.00000   90.00000   90.00000
LATT -1
SFAC Se Ag 
Se     1 -0.4698845000000  0.2500000000000  0.3929254769230 1.0
Se     1 -0.4698845000000 -0.2500000000000 -0.3929254769230 1.0
Se     1 -0.4698845000000 -0.2500000000000  0.1070745230770 1.0
Se     1 -0.4698845000000  0.2500000000000 -0.1070745230770 1.0
Ag     2 -0.1874903482393 -0.4080684236143  0.3560302306586 1.0
Ag     2 -0.1874903482393  0.4080684236143 -0.3560302306586 1.0
Ag     2 -0.1874903482393  0.0919315763857  0.1439697693414 1.0
Ag     2 -0.1874903482393 -0.0919315763857 -0.1439697693414 1.0
Ag     2  0.2477213482393  0.4080684236143  0.1439697693414 1.0
Ag     2  0.2477213482393 -0.4080684236143 -0.1439697693414 1.0
Ag     2  0.2477213482393 -0.0919315763857  0.3560302306586 1.0
Ag     2  0.2477213482393  0.0919315763857 -0.3560302306586 1.0
END
