TITL 4Ag2Se_CONSTCUT-200811-070347-71a829 -0.0088 215.589681 -4.61176731E+004 0 0 12 (Ibam) n - 1
REM
REM Run started: Tue, 11 Aug 2020 09:47:51 +0100 in /lustre/scratch/uccabz1/launch_tmp/launcher_2020-08-11-06-03-45-751607
REM CASTEP 20.1 from code version af48c487+ pr-geom-scf-spinfix Tue Jun 2 15:39:59 2020 +0100
REM Functional PBE for solids (2008) Relativity Koelling-Harmon Dispersion off
REM Cut-off 300.0000 eV Grid scale 2.0000 Gmax 26.6208 1/A FBSC none
REM MP grid 5 4 4 Offset 0.000 0.000 0.000 No. kpts 26 Spacing 0.05
REM Total runtime: 9902.59 s
REM Overall efficiency: 76.5556 %
REM
REM 4Ag2Se_CONSTCUT.cell (097ebf1fd09fb02df10c18b5c3809341)
REM
REM compiler GCC version 4.9.2
REM options -cpp -iprefix /lustre/shared/ucl/apps/gcc/4.9.2/bin/../lib/gcc/x86_64-unknown-linux-gnu/4.9.2/ -mtune=corei7 -march=x86-64 -g -Og
REM COMMAND_LINE
REM seed 207224978 742745625 492476322 -147197310 109876599 -1159009524 -624169469 -761342133 698399389 -1776360642 341235117 -1287687815
REM
REM Se 3|2.1|7|7|9|40:41:32(qc=5)
REM Ag 3|2.2|7|7|9|40U:50:41:42(qc=5)
REM 
CELL 1.54180    5.02016    7.03576    7.03576   88.15032   69.09863   69.09863
LATT -1
SFAC Se Ag 
Se     1 -0.1038624380286  0.2306672001614 -0.4710026948004 1.0
Se     1 -0.3441979326675 -0.2306672001614  0.4710026948004 1.0
Se     1  0.3961375619714 -0.4710026948004  0.2306672001615 1.0
Se     1  0.1558020673325  0.4710026948004 -0.2306672001614 1.0
Ag     2  0.0169078779288  0.3688589400449  0.1521368100453 1.0
Ag     2 -0.4620963719810 -0.3688589400449 -0.1521368100453 1.0
Ag     2 -0.4830921220712  0.1521368100453  0.3688589400449 1.0
Ag     2  0.0379036280190 -0.1521368100453 -0.3688589400449 1.0
Ag     2 -0.2919151753966  0.1999041606268 -0.0521918450853 1.0
Ag     2 -0.1442028598552 -0.1999041606268  0.0521918450853 1.0
Ag     2  0.2080848246034 -0.0521918450853  0.1999041606268 1.0
Ag     2  0.3557971401448  0.0521918450853 -0.1999041606268 1.0
END
