TITL 4Ag2Se_CONSTCUT-200811-071257-83b16c -0.0201 218.107585 -4.61184606E+004 0 0 12 (C2/c) n - 1
REM
REM Run started: Tue, 11 Aug 2020 10:14:28 +0100 in /lustre/scratch/uccabz1/launch_tmp/launcher_2020-08-11-06-12-55-656819
REM CASTEP 20.1 from code version af48c487+ pr-geom-scf-spinfix Tue Jun 2 15:39:59 2020 +0100
REM Functional PBE for solids (2008) Relativity Koelling-Harmon Dispersion off
REM Cut-off 300.0000 eV Grid scale 2.0000 Gmax 26.6208 1/A FBSC none
REM MP grid 5 4 4 Offset 0.000 0.000 0.000 No. kpts 26 Spacing 0.05
REM Total runtime: 10979.7 s
REM Overall efficiency: 73 %
REM
REM 4Ag2Se_CONSTCUT.cell (097ebf1fd09fb02df10c18b5c3809341)
REM
REM compiler GCC version 4.9.2
REM options -cpp -iprefix /lustre/shared/ucl/apps/gcc/4.9.2/bin/../lib/gcc/x86_64-unknown-linux-gnu/4.9.2/ -mtune=corei7 -march=x86-64 -g -Og
REM COMMAND_LINE
REM seed -1854377139 780097262 1335096060 244414808 -961442963 -1452616321 1477796830 -569474769 -1331900630 -1494035751 -246705213 -1102217525
REM
REM Se 3|2.1|7|7|9|40:41:32(qc=5)
REM Ag 3|2.2|7|7|9|40U:50:41:42(qc=5)
REM 
CELL 1.54180    5.77145    7.15187    7.15187   94.76696   62.97554   62.97554
LATT -1
SFAC Se Ag 
Se     1  0.4640415577854  0.2995007477876  0.0919838196125 1.0
Se     1 -0.0359584422146  0.0919838196125  0.2995007477876 1.0
Se     1  0.2902350362501 -0.1082417631588 -0.3158579641173 1.0
Se     1 -0.2097649637499 -0.3158579641173 -0.1082417631588 1.0
Ag     2 -0.2867527856664 -0.0098615008457 -0.3186105565683 1.0
Ag     2  0.2132472143336 -0.3186105565683 -0.0098615008457 1.0
Ag     2  0.3773852471531 -0.3340606340434  0.3174121962177 1.0
Ag     2 -0.1226147528469  0.3174121962177 -0.3340606340434 1.0
Ag     2  0.3775271280346  0.3907335908872 -0.4074474232323 1.0
Ag     2 -0.1224728719654 -0.4074474232323  0.3907335908872 1.0
Ag     2  0.0419235164433  0.3019440452178 -0.0066901577570 1.0
Ag     2 -0.4580764835567 -0.0066901577570  0.3019440452178 1.0
END
