TITL 4Ag2Se_CONSTCUT-200811-065657-5aaaf7 -0.0912 233.646041 -4.61184155E+004 0 0 12 (R3) n - 1
REM
REM Run started: Tue, 11 Aug 2020 09:41:37 +0100 in /lustre/scratch/uccabz1/launch_tmp/launcher_2020-08-11-05-56-55-595131
REM CASTEP 20.1 from code version af48c487+ pr-geom-scf-spinfix Tue Jun 2 15:39:59 2020 +0100
REM Functional PBE for solids (2008) Relativity Koelling-Harmon Dispersion off
REM Cut-off 300.0000 eV Grid scale 2.0000 Gmax 26.6208 1/A FBSC none
REM MP grid 4 4 4 Offset 0.000 0.000 0.000 No. kpts 12 Spacing 0.05
REM Total runtime: 9944.81 s
REM Overall efficiency: 85.125 %
REM
REM 4Ag2Se_CONSTCUT.cell (097ebf1fd09fb02df10c18b5c3809341)
REM
REM compiler GCC version 4.9.2
REM options -cpp -iprefix /lustre/shared/ucl/apps/gcc/4.9.2/bin/../lib/gcc/x86_64-unknown-linux-gnu/4.9.2/ -mtune=corei7 -march=x86-64 -g -Og
REM COMMAND_LINE
REM seed 85210978 -526243390 1347771403 177701277 -1329414440 -1480316175 1275603057 1268896970 427953500 -1338284423 1386108964 368442793
REM
REM Se 3|2.1|7|7|9|40:41:32(qc=5)
REM Ag 3|2.2|7|7|9|40U:50:41:42(qc=5)
REM 
CELL 1.54180    6.16827    6.16827    6.16827   93.06127   93.06127   93.06127
LATT -1
SFAC Se Ag 
Se     1 -0.3421809901912  0.2111148544323  0.1089108315795 1.0
Se     1  0.2111148544323  0.1089108315795 -0.3421809901912 1.0
Se     1  0.1089108315795 -0.3421809901912  0.2111148544323 1.0
Se     1 -0.4451389947431 -0.4451389947431 -0.4451389947431 1.0
Ag     2 -0.1232623776434  0.2929295354777 -0.5064024105658 1.0
Ag     2  0.2929295354777 -0.5064024105658 -0.1232623776434 1.0
Ag     2 -0.5064024105658 -0.1232623776434  0.2929295354777 1.0
Ag     2 -0.1058838387301 -0.1755984200631 -0.4578613937630 1.0
Ag     2 -0.1755984200631 -0.4578613937630 -0.1058838387301 1.0
Ag     2 -0.4578613937630 -0.1058838387301 -0.1755984200631 1.0
Ag     2  0.2595058046016  0.2595058046016  0.2595058046016 1.0
Ag     2 -0.0176199003915 -0.0176199003915 -0.0176199003915 1.0
END
