TITL 4Ag2Se_CONSTCUT_NOSYM-200810-225252-207f3e -0.1200 220.093648 -4.61185007E+004 0 0 12 (P1) n - 1
REM
REM Run started: Tue, 11 Aug 2020 10:36:11 +0100 in /lustre/scratch/uccabz1/launch_tmp/launcher_2020-08-10-21-52-50-786153
REM CASTEP 20.1 from code version af48c487+ pr-geom-scf-spinfix Tue Jun 2 15:39:59 2020 +0100
REM Functional PBE for solids (2008) Relativity Koelling-Harmon Dispersion off
REM Cut-off 300.0000 eV Grid scale 2.0000 Gmax 26.6208 1/A FBSC none
REM MP grid 6 3 3 Offset 0.000 0.000 0.000 No. kpts 27 Spacing 0.05
REM Total runtime: 47038.3 s
REM Overall efficiency: 97.1667 %
REM
REM 4Ag2Se_CONSTCUT_NOSYM.cell (04f5f378ecb9f162ba8e0859c4ea5e99)
REM
REM compiler GCC version 4.9.2
REM options -cpp -iprefix /lustre/shared/ucl/apps/gcc/4.9.2/bin/../lib/gcc/x86_64-unknown-linux-gnu/4.9.2/ -mtune=corei7 -march=x86-64 -g -Og
REM COMMAND_LINE
REM seed 1229127229 543384887 1128428745 1545569749 -1894534541 -1046507961 -1759663493 -292815152 19272569 961856861 1477239965 -857750534
REM
REM Se 3|2.1|7|7|9|40:41:32(qc=5)
REM Ag 3|2.2|7|7|9|40U:50:41:42(qc=5)
REM 
CELL 1.54180    4.32290    7.54185    7.62101  106.28600   80.98409  112.43794
LATT -1
SFAC Se Ag 
Se     1 -0.5877224477493 -0.2350821199185 -0.3973284853461 1.0
Se     1  0.2662708334274  0.1990939738740 -0.1936995084280 1.0
Se     1 -0.3625954129247  0.1619121360922  0.3440409492488 1.0
Se     1  0.0301486833751 -0.2036138514841  0.0680832026187 1.0
Ag     2 -0.0948683762840 -0.5864724409214 -0.0091979022383 1.0
Ag     2 -0.3726180762730 -0.4091730778889 -0.1972992580677 1.0
Ag     2 -0.5838829319755 -0.3069023603838  0.2333874709579 1.0
Ag     2  0.7741180157956  0.5429704904572  0.4082125272955 1.0
Ag     2  0.0818860456239  0.3750461266292 -0.4083844724096 1.0
Ag     2 -0.3451603117464 -0.0036980363742 -0.0504423746430 1.0
Ag     2  0.2549937525098  0.2631933601418  0.1720996989450 1.0
Ag     2  0.0196432262211 -0.0403597002236  0.4622695520669 1.0
END
