TITL 4Ag2Se_CONSTCUT_NOSYM-200810-230304-24f916 -0.0462 215.088860 -4.61178344E+004 0 0 12 (P1) n - 1
REM
REM Run started: Tue, 11 Aug 2020 08:52:31 +0100 in /lustre/scratch/uccabz1/launch_tmp/launcher_2020-08-10-22-03-02-881328
REM CASTEP 20.1 from code version af48c487+ pr-geom-scf-spinfix Tue Jun 2 15:39:59 2020 +0100
REM Functional PBE for solids (2008) Relativity Koelling-Harmon Dispersion off
REM Cut-off 300.0000 eV Grid scale 2.0000 Gmax 26.6208 1/A FBSC none
REM MP grid 6 5 2 Offset 0.000 0.000 0.000 No. kpts 30 Spacing 0.05
REM Total runtime: 40099.5 s
REM Overall efficiency: 93.75 %
REM
REM 4Ag2Se_CONSTCUT_NOSYM.cell (04f5f378ecb9f162ba8e0859c4ea5e99)
REM
REM compiler GCC version 4.9.2
REM options -cpp -iprefix /lustre/shared/ucl/apps/gcc/4.9.2/bin/../lib/gcc/x86_64-unknown-linux-gnu/4.9.2/ -mtune=corei7 -march=x86-64 -g -Og
REM COMMAND_LINE
REM seed -1430960382 -652842425 700124384 467514988 719809523 951539657 -2125473258 1343343844 246941617 919053749 1538946083 1440233889
REM
REM Se 3|2.1|7|7|9|40:41:32(qc=5)
REM Ag 3|2.2|7|7|9|40U:50:41:42(qc=5)
REM 
CELL 1.54180    4.05577    4.98436   12.00815   75.27259   88.39207   66.80609
LATT -1
SFAC Se Ag 
Se     1 -0.3998591240861 -0.2429147219401 -0.0080103020462 1.0
Se     1 -0.1194932601509  0.1630592302861  0.2856183423860 1.0
Se     1 -0.3859278660418 -0.3249873303361  0.4707686731386 1.0
Se     1  0.0136154781107  0.0042510620671 -0.3771990976665 1.0
Ag     2  0.2672674403811 -0.6302917308380  0.4145088478811 1.0
Ag     2  0.2800523813999  0.4194265429378 -0.0942564871371 1.0
Ag     2 -0.4288785498186 -0.2166947186674  0.2389652845258 1.0
Ag     2 -0.3590703474908 -0.2744672755955 -0.2463342378158 1.0
Ag     2 -0.0487129247475  0.0865171774235 -0.1686538252894 1.0
Ag     2 -0.7527295935469  0.4471359229929  0.1516062134046 1.0
Ag     2 -0.0712281738125  0.0979694181967  0.0683389148921 1.0
Ag     2  0.3161558398035  0.3960436234731 -0.3396738262733 1.0
END
