TITL 4Ag2Se_CONSTCUT-200811-055018-a26258 0.0415 237.598360 -4.61178006E+004 0 0 12 (Pma2) n - 1
REM
REM Run started: Tue, 11 Aug 2020 17:05:57 +0100 in /lustre/scratch/uccabz1/launch_tmp/launcher_2020-08-11-04-50-16-357453
REM CASTEP 20.1 from code version af48c487+ pr-geom-scf-spinfix Tue Jun 2 15:39:59 2020 +0100
REM Functional PBE for solids (2008) Relativity Koelling-Harmon Dispersion off
REM Cut-off 300.0000 eV Grid scale 2.0000 Gmax 26.6208 1/A FBSC none
REM MP grid 5 3 3 Offset 0.000 0.000 0.000 No. kpts 16 Spacing 0.05
REM Total runtime: 40947.4 s
REM Overall efficiency: 98.1667 %
REM
REM 4Ag2Se_CONSTCUT.cell (097ebf1fd09fb02df10c18b5c3809341)
REM
REM compiler GCC version 4.9.2
REM options -cpp -iprefix /lustre/shared/ucl/apps/gcc/4.9.2/bin/../lib/gcc/x86_64-unknown-linux-gnu/4.9.2/ -mtune=corei7 -march=x86-64 -g -Og
REM COMMAND_LINE
REM seed 1587299806 1434330068 639039157 -1027295725 -1773101818 -399395888 -855987435 -1859455024 175066997 445695525 -1231464972 1900361772
REM
REM Se 3|2.1|7|7|9|40:41:32(qc=5)
REM Ag 3|2.2|7|7|9|40U:50:41:42(qc=5)
REM 
CELL 1.54180    4.60031    7.62684    6.77195   90.00000   90.17748   90.00000
LATT -1
SFAC Se Ag 
Se     1 -0.2510734654506  0.0995933331646  0.2673755732132 1.0
Se     1  0.2510734654506  0.0995933331646 -0.2673755732132 1.0
Se     1  0.2499402043187 -0.4350320658541  0.1866623388340 1.0
Se     1 -0.2499402043187 -0.4350320658541 -0.1866623388340 1.0
Ag     2 -0.2480644766940 -0.1270079485757 -0.3768062470807 1.0
Ag     2  0.2480644766940 -0.1270079485757  0.3768062470807 1.0
Ag     2  0.2501642808609 -0.4652168975727 -0.3860558772983 1.0
Ag     2 -0.2501642808609 -0.4652168975727  0.3860558772983 1.0
Ag     2 -0.2487783131739 -0.1966841438982  0.1133882970144 1.0
Ag     2  0.2487783131739 -0.1966841438982 -0.1133882970144 1.0
Ag     2 -0.2486437809802  0.2509970227362 -0.3490931448788 1.0
Ag     2  0.2486437809802  0.2509970227362  0.3490931448788 1.0
END
