TITL 4Ag2Se_CONSTCUT-200811-053336-2f54f9 -0.0818 222.809898 -4.61181538E+004 0 0 12 (P2/m) n - 1
REM
REM Run started: Tue, 11 Aug 2020 14:22:35 +0100 in /lustre/scratch/uccabz1/launch_tmp/launcher_2020-08-11-04-33-34-344103
REM CASTEP 20.1 from code version af48c487+ pr-geom-scf-spinfix Tue Jun 2 15:39:59 2020 +0100
REM Functional PBE for solids (2008) Relativity Koelling-Harmon Dispersion off
REM Cut-off 300.0000 eV Grid scale 2.0000 Gmax 26.6208 1/A FBSC none
REM MP grid 5 4 3 Offset 0.000 0.000 0.000 No. kpts 18 Spacing 0.05
REM Total runtime: 34440 s
REM Overall efficiency: 94.25 %
REM
REM 4Ag2Se_CONSTCUT.cell (097ebf1fd09fb02df10c18b5c3809341)
REM
REM compiler GCC version 4.9.2
REM options -cpp -iprefix /lustre/shared/ucl/apps/gcc/4.9.2/bin/../lib/gcc/x86_64-unknown-linux-gnu/4.9.2/ -mtune=corei7 -march=x86-64 -g -Og
REM COMMAND_LINE
REM seed 424366609 1155171743 -2008720895 162697455 -1408197698 -1167550997 1987189486 -363938329 -1221277957 -328125085 -444670347 -1654729752
REM
REM Se 3|2.1|7|7|9|40:41:32(qc=5)
REM Ag 3|2.2|7|7|9|40U:50:41:42(qc=5)
REM 
CELL 1.54180    4.58873    5.51590    9.45860  111.45956   90.00000   90.00000
LATT -1
SFAC Se Ag 
Se     1  0.2962709000000 -0.1040285518754 -0.2646536093227 1.0
Se     1  0.2962709000000  0.1040285518754  0.2646536093227 1.0
Se     1 -0.2037291000000 -0.2380665634394  0.4573228880856 1.0
Se     1 -0.2037291000000  0.2380665634394 -0.4573228880856 1.0
Ag     2  0.2962709000000 -0.3750004100332  0.3159470389557 1.0
Ag     2  0.2962709000000  0.3750004100332 -0.3159470389557 1.0
Ag     2 -0.2037291000000  0.3244650238381 -0.1484802063796 1.0
Ag     2 -0.2037291000000 -0.3244650238381  0.1484802063796 1.0
Ag     2  0.2962709000000 -0.2649485740232 -0.0111294907630 1.0
Ag     2  0.2962709000000  0.2649485740232  0.0111294907630 1.0
Ag     2 -0.2037291000000 -0.1835690088479 -0.1524873222786 1.0
Ag     2 -0.2037291000000  0.1835690088479  0.1524873222786 1.0
END
