TITL 4Ag2Se_CONSTCUT-200811-081818-0b7979 -0.0305 224.757011 -4.61188638E+004 0 0 12 (P212121) n - 1
REM
REM Run started: Tue, 11 Aug 2020 11:34:06 +0100 in /lustre/scratch/uccabz1/launch_tmp/launcher_2020-08-11-07-18-16-697417
REM CASTEP 20.1 from code version af48c487+ pr-geom-scf-spinfix Tue Jun 2 15:39:59 2020 +0100
REM Functional PBE for solids (2008) Relativity Koelling-Harmon Dispersion off
REM Cut-off 300.0000 eV Grid scale 2.0000 Gmax 26.6208 1/A FBSC none
REM MP grid 4 3 4 Offset 0.000 0.000 0.000 No. kpts 12 Spacing 0.05
REM Total runtime: 11891.1 s
REM Overall efficiency: 85.2222 %
REM
REM 4Ag2Se_CONSTCUT.cell (097ebf1fd09fb02df10c18b5c3809341)
REM
REM compiler GCC version 4.9.2
REM options -cpp -iprefix /lustre/shared/ucl/apps/gcc/4.9.2/bin/../lib/gcc/x86_64-unknown-linux-gnu/4.9.2/ -mtune=corei7 -march=x86-64 -g -Og
REM COMMAND_LINE
REM seed 976788313 1842539575 1417337912 -1855166742 1032777255 -698166900 -661597742 2054834125 1676124945 -937955223 -979817513 -2012699190
REM
REM Se 3|2.1|7|7|9|40:41:32(qc=5)
REM Ag 3|2.2|7|7|9|40U:50:41:42(qc=5)
REM 
CELL 1.54180    5.05275    6.76859    6.57184   89.97494   90.00000   90.00000
LATT -1
SFAC Se Ag 
Se     1 -0.1960886526627 -0.0368585567108 -0.3271438757506 1.0
Se     1  0.3039113473373  0.0368585567108  0.3271438757506 1.0
Se     1 -0.3620187919204 -0.4628417757246  0.1725957456780 1.0
Se     1  0.1379812080796  0.4628417757246 -0.1725957456780 1.0
Ag     2 -0.3762527466816 -0.0847020552680  0.0403713472886 1.0
Ag     2  0.1237472533184  0.0847020552680 -0.0403713472886 1.0
Ag     2 -0.3839719942501  0.2973810417859 -0.1641963770732 1.0
Ag     2  0.1160280057499 -0.2973810417859  0.1641963770732 1.0
Ag     2 -0.1731256926359  0.2046154519736  0.3378904730795 1.0
Ag     2  0.3268743073641 -0.2046154519736 -0.3378904730795 1.0
Ag     2  0.3210827781507  0.4134038095076  0.4615709104972 1.0
Ag     2 -0.1789172218493 -0.4134038095076 -0.4615709104972 1.0
END
