TITL 4Ag2Se_CONSTCUT_NOSYM-200810-175814-c44ca8 -0.0393 218.135558 -4.61182411E+004 0 0 12 (P1) n - 1
REM
REM Run started: Tue, 11 Aug 2020 06:53:28 +0100 in /lustre/scratch/uccabz1/launch_tmp/launcher_2020-08-10-16-58-12-456991
REM CASTEP 20.1 from code version af48c487+ pr-geom-scf-spinfix Tue Jun 2 15:39:59 2020 +0100
REM Functional PBE for solids (2008) Relativity Koelling-Harmon Dispersion off
REM Cut-off 300.0000 eV Grid scale 2.0000 Gmax 26.6208 1/A FBSC none
REM MP grid 5 4 3 Offset 0.000 0.000 0.000 No. kpts 30 Spacing 0.05
REM Total runtime: 51966.2 s
REM Overall efficiency: 98.5833 %
REM
REM 4Ag2Se_CONSTCUT_NOSYM.cell (04f5f378ecb9f162ba8e0859c4ea5e99)
REM
REM compiler GCC version 4.9.2
REM options -cpp -iprefix /lustre/shared/ucl/apps/gcc/4.9.2/bin/../lib/gcc/x86_64-unknown-linux-gnu/4.9.2/ -mtune=corei7 -march=x86-64 -g -Og
REM COMMAND_LINE
REM seed -1026236720 -1227812842 -950794733 -1469266678 -1322316089 -387766170 -518314506 -1356317325 -1867832355 -204876821 -1231091824 739097837
REM
REM Se 3|2.1|7|7|9|40:41:32(qc=5)
REM Ag 3|2.2|7|7|9|40U:50:41:42(qc=5)
REM 
CELL 1.54180    4.76144    6.39651    7.95894   84.37919   64.79086   89.35779
LATT -1
SFAC Se Ag 
Se     1 -0.1293834189972  0.1436786419711 -0.2518946537025 1.0
Se     1  0.1109858456383 -0.3749351249409 -0.0556886461707 1.0
Se     1  0.4344393296517 -0.4377947324726  0.3377447908321 1.0
Se     1 -0.0462871599407 -0.0648491184163  0.3513983563309 1.0
Ag     2 -0.4610810083926 -0.1609850582634  0.0257195335251 1.0
Ag     2 -0.0656147143939 -0.3700717772890 -0.3485650287909 1.0
Ag     2  0.4363826245533  0.1244554307531  0.3576774247176 1.0
Ag     2  0.4205640762190  0.3606618764951 -0.3205336958397 1.0
Ag     2 -0.0559883731557  0.3702218468855  0.3301593166352 1.0
Ag     2 -0.4747269225262  0.3728355984613  0.0194056226343 1.0
Ag     2  0.4461509028600 -0.1138817825454 -0.3333445480442 1.0
Ag     2  0.0336741184841  0.1012171993616  0.0220891278730 1.0
END
