TITL 4Ag2Se_CONSTCUT_NOSYM-200810-193039-908bcc -0.2217 215.725179 -4.61183786E+004 0 0 12 (C2/m) n - 1
REM
REM Run started: Tue, 11 Aug 2020 05:19:23 +0100 in /lustre/scratch/uccabz1/launch_tmp/launcher_2020-08-10-18-30-38-029405
REM CASTEP 20.1 from code version af48c487+ pr-geom-scf-spinfix Tue Jun 2 15:39:59 2020 +0100
REM Functional PBE for solids (2008) Relativity Koelling-Harmon Dispersion off
REM Cut-off 300.0000 eV Grid scale 2.0000 Gmax 26.6208 1/A FBSC none
REM MP grid 5 4 3 Offset 0.000 0.000 0.000 No. kpts 30 Spacing 0.05
REM Total runtime: 39345.8 s
REM Overall efficiency: 92.8333 %
REM
REM 4Ag2Se_CONSTCUT_NOSYM.cell (04f5f378ecb9f162ba8e0859c4ea5e99)
REM
REM compiler GCC version 4.9.2
REM options -cpp -iprefix /lustre/shared/ucl/apps/gcc/4.9.2/bin/../lib/gcc/x86_64-unknown-linux-gnu/4.9.2/ -mtune=corei7 -march=x86-64 -g -Og
REM COMMAND_LINE
REM seed 848026077 782387966 146098023 -701610416 -1395704631 -190512784 501749713 2072437985 -2019898593 60921685 1608429670 179909566
REM
REM Se 3|2.1|7|7|9|40:41:32(qc=5)
REM Ag 3|2.2|7|7|9|40U:50:41:42(qc=5)
REM 
CELL 1.54180    4.45268    5.94633    8.33590   86.34291   82.19797   98.07581
LATT -1
SFAC Se Ag 
Se     1  0.1423570965228  0.3320773761364  0.1414383229165 1.0
Se     1 -0.4451716440846 -0.0914514366137  0.3371562592175 1.0
Se     1  0.6384221780629  0.3304863218484 -0.3574282904155 1.0
Se     1  0.0556383674999 -0.0902921235621 -0.1642263518332 1.0
Ag     2 -0.3992807528977 -0.3826541173393 -0.0130471642927 1.0
Ag     2  0.0947227432830  0.1186187725429  0.4891527334623 1.0
Ag     2  0.1018158392044 -0.3829609699414  0.4890039366986 1.0
Ag     2 -0.4167961279970 -0.1924058402344 -0.3384043085075 1.0
Ag     2  0.1132553966303  0.4264342866067 -0.1837543799280 1.0
Ag     2 -0.3851885688367  0.4224328776458  0.3176905537379 1.0
Ag     2  0.0835999172361 -0.1904716454933  0.1601114382968 1.0
Ag     2 -0.3935067446235  0.1185504984040 -0.0027765493527 1.0
END
