TITL 4Ag2Se_CONSTCUT_NOSYM-200810-171416-e96f70 -0.0452 216.755065 -4.61185128E+004 0 0 12 (P1) n - 1
REM
REM Run started: Tue, 11 Aug 2020 02:59:50 +0100 in /lustre/scratch/uccabz1/launch_tmp/launcher_2020-08-10-16-14-14-594836
REM CASTEP 20.1 from code version af48c487+ pr-geom-scf-spinfix Tue Jun 2 15:39:59 2020 +0100
REM Functional PBE for solids (2008) Relativity Koelling-Harmon Dispersion off
REM Cut-off 300.0000 eV Grid scale 2.0000 Gmax 26.6208 1/A FBSC none
REM MP grid 5 4 3 Offset 0.000 0.000 0.000 No. kpts 30 Spacing 0.05
REM Total runtime: 39281.2 s
REM Overall efficiency: 98.25 %
REM
REM 4Ag2Se_CONSTCUT_NOSYM.cell (04f5f378ecb9f162ba8e0859c4ea5e99)
REM
REM compiler GCC version 4.9.2
REM options -cpp -iprefix /lustre/shared/ucl/apps/gcc/4.9.2/bin/../lib/gcc/x86_64-unknown-linux-gnu/4.9.2/ -mtune=corei7 -march=x86-64 -g -Og
REM COMMAND_LINE
REM seed -717440997 -326992343 -296458692 982875406 -68959965 -597502454 -2113405447 653155728 -1980822088 1231700429 1287037697 -541413243
REM
REM Se 3|2.1|7|7|9|40:41:32(qc=5)
REM Ag 3|2.2|7|7|9|40U:50:41:42(qc=5)
REM 
CELL 1.54180    4.24537    5.81877    8.77624   89.51322   89.94381   91.03410
LATT -1
SFAC Se Ag 
Se     1 -0.3563446399527 -0.5085058814116  0.3318093118546 1.0
Se     1  0.1177746475739  0.1236251498830  0.1267132978167 1.0
Se     1  0.1246400019286  0.1309451724142 -0.4673398493967 1.0
Se     1  0.2940929486057 -0.3744340801984 -0.1711941194895 1.0
Ag     2 -0.3252354068172 -0.1202647657834  0.0000098167705 1.0
Ag     2 -0.3282099684165 -0.1098685552085 -0.3392750910726 1.0
Ag     2  0.1771110596748  0.1283718257873 -0.1695561272480 1.0
Ag     2 -0.3212876302961  0.3883718966744 -0.3421154946253 1.0
Ag     2 -0.3556153566601 -0.0403791760633  0.3299387530938 1.0
Ag     2  0.1600076077376 -0.3398900097082  0.4917493852870 1.0
Ag     2 -0.3220892323960  0.3798767444421 -0.0013534758306 1.0
Ag     2  0.1672298690181 -0.3580790208275  0.1632417928403 1.0
END
