TITL 4Ag2Se_CONSTCUT-200811-074145-5f4038 -0.0329 229.125207 -4.61171424E+004 0 0 12 (P3) n - 1
REM
REM Run started: Tue, 11 Aug 2020 11:27:17 +0100 in /lustre/scratch/uccabz1/launch_tmp/launcher_2020-08-11-06-41-43-586914
REM CASTEP 20.1 from code version af48c487+ pr-geom-scf-spinfix Tue Jun 2 15:39:59 2020 +0100
REM Functional PBE for solids (2008) Relativity Koelling-Harmon Dispersion off
REM Cut-off 300.0000 eV Grid scale 2.0000 Gmax 26.6208 1/A FBSC none
REM MP grid 4 4 4 Offset 0.000 0.000 0.000 No. kpts 32 Spacing 0.05
REM Total runtime: 13687.6 s
REM Overall efficiency: 96.4286 %
REM
REM 4Ag2Se_CONSTCUT.cell (097ebf1fd09fb02df10c18b5c3809341)
REM
REM compiler GCC version 4.9.2
REM options -cpp -iprefix /lustre/shared/ucl/apps/gcc/4.9.2/bin/../lib/gcc/x86_64-unknown-linux-gnu/4.9.2/ -mtune=corei7 -march=x86-64 -g -Og
REM COMMAND_LINE
REM seed 1195848471 -1071474743 -1409857071 -2048862804 -533413531 2037489729 -318034801 142411506 -1085894976 531973937 1578549740 2070851797
REM
REM Se 3|2.1|7|7|9|40:41:32(qc=5)
REM Ag 3|2.2|7|7|9|40U:50:41:42(qc=5)
REM 
CELL 1.54180    5.31459    7.05564    7.05564  120.00000   90.00000   90.00000
LATT -1
SFAC Se Ag 
Se     1 -0.4175164931557 -0.0346942480680  0.3247201243328 1.0
Se     1 -0.4175164931557 -0.3247201243328 -0.3594143724008 1.0
Se     1 -0.4175164931557  0.3594143724008  0.0346942480680 1.0
Se     1  0.1325147702723 -0.3333333333333  0.3333333333333 1.0
Ag     2  0.1364852240736 -0.4546584936274 -0.3671328612474 1.0
Ag     2  0.1364852240736  0.3671328612474 -0.0875256323800 1.0
Ag     2  0.1364852240736  0.0875256323800  0.4546584936274 1.0
Ag     2 -0.1115799791553 -0.0144347357055 -0.2526124712106 1.0
Ag     2 -0.1115799791553  0.2526124712106  0.2381777355050 1.0
Ag     2 -0.1115799791553 -0.2381777355050  0.0144347357055 1.0
Ag     2  0.3297505749584  0.0000000000000 -0.0000000000000 1.0
Ag     2 -0.3115550005186  0.3333333333333 -0.3333333333333 1.0
END
