TITL 4Ag2Se_CONSTCUT_NOSYM-200810-230822-b58709 -0.0066 214.753450 -4.61185318E+004 0 0 12 (P-1) n - 1
REM
REM Run started: Tue, 11 Aug 2020 02:18:19 +0100 in /lustre/scratch/uccabz1/launch_tmp/launcher_2020-08-10-22-08-20-485310
REM CASTEP 20.1 from code version af48c487+ pr-geom-scf-spinfix Tue Jun 2 15:39:59 2020 +0100
REM Functional PBE for solids (2008) Relativity Koelling-Harmon Dispersion off
REM Cut-off 300.0000 eV Grid scale 2.0000 Gmax 26.6208 1/A FBSC none
REM MP grid 5 4 3 Offset 0.000 0.000 0.000 No. kpts 30 Spacing 0.05
REM Total runtime: 11684 s
REM Overall efficiency: 97.5714 %
REM
REM 4Ag2Se_CONSTCUT_NOSYM.cell (04f5f378ecb9f162ba8e0859c4ea5e99)
REM
REM compiler GCC version 4.9.2
REM options -cpp -iprefix /lustre/shared/ucl/apps/gcc/4.9.2/bin/../lib/gcc/x86_64-unknown-linux-gnu/4.9.2/ -mtune=corei7 -march=x86-64 -g -Og
REM COMMAND_LINE
REM seed 1827333726 1653128402 2039272298 407261067 255857988 752106209 2106098635 419529028 805821846 -617358953 632198896 -1207009077
REM
REM Se 3|2.1|7|7|9|40:41:32(qc=5)
REM Ag 3|2.2|7|7|9|40U:50:41:42(qc=5)
REM 
CELL 1.54180    4.07654    6.85218    8.13110   72.31527   90.15357   83.32462
LATT -1
SFAC Se Ag 
Se     1  0.3350570650874  0.1889529874953  0.3775412391026 1.0
Se     1  0.1583477648552 -0.2256496986160 -0.2716270260734 1.0
Se     1  0.3529353449347  0.1829457012251 -0.1235828439852 1.0
Se     1  0.1448901025880 -0.2197808191899  0.2275656008402 1.0
Ag     2 -0.1822922923675  0.1574728966722  0.1355835817024 1.0
Ag     2 -0.1775675665850  0.1530554552076 -0.3652606655834 1.0
Ag     2 -0.3249222866089 -0.1961762119939 -0.0318683343895 1.0
Ag     2 -0.2474565365976  0.4787004936530 -0.1981923179291 1.0
Ag     2  0.2480121793131  0.4831330903934 -0.4481989372573 1.0
Ag     2 -0.3254223911552 -0.1879082723125  0.4691049746769 1.0
Ag     2 -0.2571457187705 -0.5152537536777  0.3018430623509 1.0
Ag     2  0.2470334353063  0.4800466311433  0.0529073665448 1.0
END
