TITL 4Ag2Se_CONSTCUT_NOSYM-200810-174802-e78616 -0.0239 213.741005 -4.61185236E+004 0 0 12 (P21/c) n - 1
REM
REM Run started: Tue, 11 Aug 2020 02:17:00 +0100 in /lustre/scratch/uccabz1/launch_tmp/launcher_2020-08-10-16-48-00-806186
REM CASTEP 20.1 from code version af48c487+ pr-geom-scf-spinfix Tue Jun 2 15:39:59 2020 +0100
REM Functional PBE for solids (2008) Relativity Koelling-Harmon Dispersion off
REM Cut-off 300.0000 eV Grid scale 2.0000 Gmax 26.6208 1/A FBSC none
REM MP grid 5 4 3 Offset 0.000 0.000 0.000 No. kpts 30 Spacing 0.05
REM Total runtime: 30646.2 s
REM Overall efficiency: 94.1667 %
REM
REM 4Ag2Se_CONSTCUT_NOSYM.cell (04f5f378ecb9f162ba8e0859c4ea5e99)
REM
REM compiler GCC version 4.9.2
REM options -cpp -iprefix /lustre/shared/ucl/apps/gcc/4.9.2/bin/../lib/gcc/x86_64-unknown-linux-gnu/4.9.2/ -mtune=corei7 -march=x86-64 -g -Og
REM COMMAND_LINE
REM seed -627491524 2038459963 -839570271 -1060508760 -1182744449 -1502717054 -562540734 23345023 438387039 1276407995 -1213457953 411761400
REM
REM Se 3|2.1|7|7|9|40:41:32(qc=5)
REM Ag 3|2.2|7|7|9|40U:50:41:42(qc=5)
REM 
CELL 1.54180    4.15964    6.96097    7.91120   68.92091   90.15731   90.02312
LATT -1
SFAC Se Ag 
Se     1 -0.0040370828448 -0.3080642852794  0.3633813108359 1.0
Se     1  0.4033991855283  0.2818357980480 -0.0722681181756 1.0
Se     1 -0.0953037092368 -0.3085029695774 -0.1354620989066 1.0
Se     1 -0.5043474970945  0.2813599053782  0.4291841918840 1.0
Ag     2 -0.0464573943215  0.3276958100977  0.1692856962423 1.0
Ag     2 -0.0677782264028 -0.0053883514133  0.0167360437800 1.0
Ag     2 -0.0448426670464 -0.0098095770972 -0.4815766788002 1.0
Ag     2  0.4330350924088 -0.0207436162878 -0.2243521011124 1.0
Ag     2  0.4536432995563 -0.0162532824445  0.2744201461976 1.0
Ag     2  0.4487281196971 -0.3521697135301  0.1250125316725 1.0
Ag     2 -0.0501724065706  0.3262784047595 -0.3325452421728 1.0
Ag     2  0.4530253863271 -0.3530322226537 -0.3772166814448 1.0
END
