TITL 4Ag2Se_CONSTCUT_NOSYM-200810-212602-b6ed59 0.0589 218.172396 -4.61184088E+004 0 0 12 (Cm) n - 1
REM
REM Run started: Tue, 11 Aug 2020 03:11:17 +0100 in /lustre/scratch/uccabz1/launch_tmp/launcher_2020-08-10-20-26-00-765325
REM CASTEP 20.1 from code version af48c487+ pr-geom-scf-spinfix Tue Jun 2 15:39:59 2020 +0100
REM Functional PBE for solids (2008) Relativity Koelling-Harmon Dispersion off
REM Cut-off 300.0000 eV Grid scale 2.0000 Gmax 26.6208 1/A FBSC none
REM MP grid 6 3 3 Offset 0.000 0.000 0.000 No. kpts 27 Spacing 0.05
REM Total runtime: 21031.4 s
REM Overall efficiency: 97.4444 %
REM
REM 4Ag2Se_CONSTCUT_NOSYM.cell (04f5f378ecb9f162ba8e0859c4ea5e99)
REM
REM compiler GCC version 4.9.2
REM options -cpp -iprefix /lustre/shared/ucl/apps/gcc/4.9.2/bin/../lib/gcc/x86_64-unknown-linux-gnu/4.9.2/ -mtune=corei7 -march=x86-64 -g -Og
REM COMMAND_LINE
REM seed 326394943 -990934185 -1500112896 156632532 -620167333 1867148044 160903043 -886416208 -1297579481 1375918033 -756063436 1695122879
REM
REM Se 3|2.1|7|7|9|40:41:32(qc=5)
REM Ag 3|2.2|7|7|9|40U:50:41:42(qc=5)
REM 
CELL 1.54180    4.09147    6.82505    8.07899   89.61381  104.73941   90.06442
LATT -1
SFAC Se Ag 
Se     1  0.0396212091689  0.1145867181026  0.2686826883237 1.0
Se     1 -0.1920454112693 -0.0115584345585 -0.1909771173076 1.0
Se     1 -0.7401917890894 -0.6156958633798 -0.2870547632812 1.0
Se     1  0.4914727090747  0.5209320065985  0.1745136959745 1.0
Ag     2  0.8827167285080  0.4192313002289 -0.0423212420153 1.0
Ag     2  0.4191006358260  0.1263949450428  0.0272049805667 1.0
Ag     2 -0.2749527799529 -0.3564891799203 -0.3592907509072 1.0
Ag     2  0.1028278370668  0.5579551708087  0.3957065890564 1.0
Ag     2  0.5626760834989  0.8622756994980  0.3165208588471 1.0
Ag     2  0.6519373028928  0.2450507059019  0.4934047728328 1.0
Ag     2 -0.6460197866872 -0.2589933906666 -0.0994522983966 1.0
Ag     2  0.1898494609627 -0.0606156776562 -0.4286272136933 1.0
END
