TITL 4Ag2Se_CONSTCUT-200811-065301-a688f7 0.0068 242.759288 -4.61169908E+004 0 0 12 (P3) n - 1
REM
REM Run started: Tue, 11 Aug 2020 10:21:09 +0100 in /lustre/scratch/uccabz1/launch_tmp/launcher_2020-08-11-05-52-59-691844
REM CASTEP 20.1 from code version af48c487+ pr-geom-scf-spinfix Tue Jun 2 15:39:59 2020 +0100
REM Functional PBE for solids (2008) Relativity Koelling-Harmon Dispersion off
REM Cut-off 300.0000 eV Grid scale 2.0000 Gmax 26.6208 1/A FBSC none
REM MP grid 4 4 4 Offset 0.000 0.000 0.000 No. kpts 32 Spacing 0.05
REM Total runtime: 12666.1 s
REM Overall efficiency: 97.5 %
REM
REM 4Ag2Se_CONSTCUT.cell (097ebf1fd09fb02df10c18b5c3809341)
REM
REM compiler GCC version 4.9.2
REM options -cpp -iprefix /lustre/shared/ucl/apps/gcc/4.9.2/bin/../lib/gcc/x86_64-unknown-linux-gnu/4.9.2/ -mtune=corei7 -march=x86-64 -g -Og
REM COMMAND_LINE
REM seed 553847067 695193804 -1850552198 241418572 -1029384529 1805528602 -1606862706 306094853 -1547840672 -89082378 1223527866 -1426042301
REM
REM Se 3|2.1|7|7|9|40:41:32(qc=5)
REM Ag 3|2.2|7|7|9|40U:50:41:42(qc=5)
REM 
CELL 1.54180    5.55870    7.10127    7.10127  120.00000   90.00000   90.00000
LATT -1
SFAC Se Ag 
Se     1 -0.3600289749896 -0.0506510045970  0.2713117284884 1.0
Se     1 -0.3600289749896 -0.2713117284884 -0.3219627330854 1.0
Se     1 -0.3600289749896  0.3219627330854  0.0506510045970 1.0
Se     1  0.0939332869524  0.3333333333333 -0.3333333333333 1.0
Ag     2  0.4362764859361 -0.4034108162539 -0.0786493147332 1.0
Ag     2  0.4362764859361  0.0786493147332 -0.3247615015207 1.0
Ag     2  0.4362764859361  0.3247615015207  0.4034108162539 1.0
Ag     2 -0.0343279528811  0.0280021558182 -0.2382065108084 1.0
Ag     2 -0.0343279528811  0.2382065108084  0.2662086666266 1.0
Ag     2 -0.0343279528811 -0.2662086666266 -0.0280021558182 1.0
Ag     2  0.3677519538484 -0.3333333333333  0.3333333333333 1.0
Ag     2 -0.1009024149971 -0.3333333333333  0.3333333333333 1.0
END
