TITL 4Ag2Se_CONSTCUT-200811-153616-7c15c0 -0.0186 210.933672 -4.61184894E+004 0 0 12 (Cmcm) n - 1
REM
REM Run started: Tue, 11 Aug 2020 18:17:26 +0100 in /lustre/scratch/uccabz1/launch_tmp/launcher_2020-08-11-14-36-14-388373
REM CASTEP 20.1 from code version af48c487+ pr-geom-scf-spinfix Tue Jun 2 15:39:59 2020 +0100
REM Functional PBE for solids (2008) Relativity Koelling-Harmon Dispersion off
REM Cut-off 300.0000 eV Grid scale 2.0000 Gmax 26.6208 1/A FBSC none
REM MP grid 6 5 2 Offset 0.000 0.000 0.000 No. kpts 9 Spacing 0.05
REM Total runtime: 9770.35 s
REM Overall efficiency: 95.1429 %
REM
REM 4Ag2Se_CONSTCUT.cell (097ebf1fd09fb02df10c18b5c3809341)
REM
REM compiler GCC version 4.9.2
REM options -cpp -iprefix /lustre/shared/ucl/apps/gcc/4.9.2/bin/../lib/gcc/x86_64-unknown-linux-gnu/4.9.2/ -mtune=corei7 -march=x86-64 -g -Og
REM COMMAND_LINE
REM seed 425212509 24376353 -2065961884 -1078525983 -641019121 -1118550234 -534069881 1938044739 -1084802749 868835852 1640604501 2108874012
REM
REM Se 3|2.1|7|7|9|40:41:32(qc=5)
REM Ag 3|2.2|7|7|9|40U:50:41:42(qc=5)
REM 
CELL 1.54180    3.92203    4.15087   12.95674   90.00000   90.00000   90.00000
LATT -1
SFAC Se Ag 
Se     1  0.2499241531031  0.2479630680665 -0.1023902675675 1.0
Se     1  0.2499241531031 -0.2479630680665  0.1023902675675 1.0
Se     1 -0.2499241531031 -0.2520369319335 -0.3976097324325 1.0
Se     1 -0.2499241531031  0.2520369319335  0.3976097324325 1.0
Ag     2  0.2502161424767  0.2484594824682 -0.4219133500080 1.0
Ag     2  0.2502161424767 -0.2484594824682  0.4219133500080 1.0
Ag     2 -0.2502161424767 -0.2515405175318 -0.0780866499920 1.0
Ag     2 -0.2502161424767  0.2515405175318  0.0780866499920 1.0
Ag     2  0.2502227668168  0.2586699533075  0.2449761215578 1.0
Ag     2  0.2502227668168 -0.2586699533075 -0.2449761215578 1.0
Ag     2 -0.2502227668168 -0.2413300466925  0.2550238784422 1.0
Ag     2 -0.2502227668168  0.2413300466925 -0.2550238784422 1.0
END
