TITL 4Ag2Se_CONSTCUT-200811-081407-2484e9 0.0349 217.801614 -4.61185944E+004 0 0 12 (Cmce) n - 1
REM
REM Run started: Tue, 11 Aug 2020 11:42:26 +0100 in /lustre/scratch/uccabz1/launch_tmp/launcher_2020-08-11-07-14-04-671070
REM CASTEP 20.1 from code version af48c487+ pr-geom-scf-spinfix Tue Jun 2 15:39:59 2020 +0100
REM Functional PBE for solids (2008) Relativity Koelling-Harmon Dispersion off
REM Cut-off 300.0000 eV Grid scale 2.0000 Gmax 26.6208 1/A FBSC none
REM MP grid 5 5 2 Offset 0.000 0.000 0.000 No. kpts 9 Spacing 0.05
REM Total runtime: 12719.9 s
REM Overall efficiency: 97.4286 %
REM
REM 4Ag2Se_CONSTCUT.cell (097ebf1fd09fb02df10c18b5c3809341)
REM
REM compiler GCC version 4.9.2
REM options -cpp -iprefix /lustre/shared/ucl/apps/gcc/4.9.2/bin/../lib/gcc/x86_64-unknown-linux-gnu/4.9.2/ -mtune=corei7 -march=x86-64 -g -Og
REM COMMAND_LINE
REM seed -1251836261 -13392268 -1410615531 -205867039 785293195 -1792212974 1469502678 1631855062 -1453239905 -1750442338 -422564097 825506507
REM
REM Se 3|2.1|7|7|9|40:41:32(qc=5)
REM Ag 3|2.2|7|7|9|40U:50:41:42(qc=5)
REM 
CELL 1.54180    4.10953    4.10953   12.90040   90.00000   90.00000   91.38808
LATT -1
SFAC Se Ag 
Se     1  0.4515233072711  0.0869508497003 -0.3965987860214 1.0
Se     1  0.0869508497003  0.4515233072711  0.3965987860214 1.0
Se     1 -0.4130491502997 -0.0484766927289  0.1034012139786 1.0
Se     1 -0.0484766927289 -0.4130491502997 -0.1034012139786 1.0
Ag     2 -0.0718678033692  0.1126279302096 -0.2502041984312 1.0
Ag     2  0.1126279302096 -0.0718678033692  0.2502041984312 1.0
Ag     2 -0.3873720697904 -0.5718678033692  0.2497958015688 1.0
Ag     2 -0.5718678033692 -0.3873720697904 -0.2497958015688 1.0
Ag     2 -0.3865336424672 -0.0738445413446  0.4098001555885 1.0
Ag     2 -0.0738445413446 -0.3865336424672 -0.4098001555885 1.0
Ag     2  0.4261554586554  0.1134663575328 -0.0901998444115 1.0
Ag     2  0.1134663575328  0.4261554586554  0.0901998444115 1.0
END
