TITL 4Ag2Se_CONSTCUT-200811-045014-19cc47 0.0617 225.552938 -4.61181019E+004 0 0 12 (P2/c) n - 1
REM
REM Run started: Tue, 11 Aug 2020 07:18:34 +0100 in /lustre/scratch/uccabz1/launch_tmp/launcher_2020-08-11-03-50-12-343060
REM CASTEP 20.1 from code version af48c487+ pr-geom-scf-spinfix Tue Jun 2 15:39:59 2020 +0100
REM Functional PBE for solids (2008) Relativity Koelling-Harmon Dispersion off
REM Cut-off 300.0000 eV Grid scale 2.0000 Gmax 26.6208 1/A FBSC none
REM MP grid 4 4 3 Offset 0.000 0.000 0.000 No. kpts 16 Spacing 0.05
REM Total runtime: 9186.44 s
REM Overall efficiency: 97.5 %
REM
REM 4Ag2Se_CONSTCUT.cell (097ebf1fd09fb02df10c18b5c3809341)
REM
REM compiler GCC version 4.9.2
REM options -cpp -iprefix /lustre/shared/ucl/apps/gcc/4.9.2/bin/../lib/gcc/x86_64-unknown-linux-gnu/4.9.2/ -mtune=corei7 -march=x86-64 -g -Og
REM COMMAND_LINE
REM seed 1578598680 1636087727 1112253905 -1847057236 -2093909042 -341827448 450417383 714494215 1609472366 -1546539686 -304546413 620189706
REM
REM Se 3|2.1|7|7|9|40:41:32(qc=5)
REM Ag 3|2.2|7|7|9|40U:50:41:42(qc=5)
REM 
CELL 1.54180    5.17046    6.17529    7.08491   90.00000   90.00000   94.38280
LATT -1
SFAC Se Ag 
Se     1  0.2092011699482  0.2935392127479 -0.3428719472910 1.0
Se     1 -0.2092011699482 -0.2935392127479 -0.3428719472910 1.0
Se     1 -0.2092011699482  0.2064607872521  0.2344577472910 1.0
Se     1  0.2092011699482 -0.2064607872521  0.2344577472910 1.0
Ag     2 -0.2956590821298  0.1545576667236 -0.3918637029918 1.0
Ag     2  0.2956590821298 -0.1545576667236 -0.3918637029918 1.0
Ag     2 -0.2956590821298 -0.3454423332764  0.2834495029918 1.0
Ag     2  0.2956590821298  0.3454423332764  0.2834495029918 1.0
Ag     2 -0.2610436596619 -0.0812743810573 -0.0377599597155 1.0
Ag     2  0.2610436596619  0.0812743810573 -0.0377599597155 1.0
Ag     2  0.2610436596619 -0.4187256189427 -0.0706542402845 1.0
Ag     2 -0.2610436596619  0.4187256189427 -0.0706542402845 1.0
END
