TITL 4Ag2Se_CONSTCUT-200811-063733-8c8ea3 0.0048 221.919112 -4.61185022E+004 0 0 12 (Pc) n - 1
REM
REM Run started: Tue, 11 Aug 2020 14:50:51 +0100 in /lustre/scratch/uccabz1/launch_tmp/launcher_2020-08-11-05-37-32-076663
REM CASTEP 20.1 from code version af48c487+ pr-geom-scf-spinfix Tue Jun 2 15:39:59 2020 +0100
REM Functional PBE for solids (2008) Relativity Koelling-Harmon Dispersion off
REM Cut-off 300.0000 eV Grid scale 2.0000 Gmax 26.6208 1/A FBSC none
REM MP grid 5 3 3 Offset 0.000 0.000 0.000 No. kpts 16 Spacing 0.05
REM Total runtime: 32746.9 s
REM Overall efficiency: 97.9167 %
REM
REM 4Ag2Se_CONSTCUT.cell (097ebf1fd09fb02df10c18b5c3809341)
REM
REM compiler GCC version 4.9.2
REM options -cpp -iprefix /lustre/shared/ucl/apps/gcc/4.9.2/bin/../lib/gcc/x86_64-unknown-linux-gnu/4.9.2/ -mtune=corei7 -march=x86-64 -g -Og
REM COMMAND_LINE
REM seed -2050118585 -1923746482 622067549 231424582 -68022993 878374739 1686962409 1212014803 366686805 998189830 -604765215 1084004142
REM
REM Se 3|2.1|7|7|9|40:41:32(qc=5)
REM Ag 3|2.2|7|7|9|40U:50:41:42(qc=5)
REM 
CELL 1.54180    4.88529    6.82442    6.65667   90.00000   90.00000   89.47752
LATT -1
SFAC Se Ag 
Se     1 -0.2860522902359  0.1719099569508 -0.0493559873894 1.0
Se     1  0.2139477097641 -0.3280900430492  0.0493559873894 1.0
Se     1  0.0405389650557  0.1701103281155  0.4531822734961 1.0
Se     1  0.5405389650557 -0.3298896718845 -0.4531822734961 1.0
Ag     2 -0.9671243333472  0.4732717230425 -0.2783642076448 1.0
Ag     2 -0.4671243333472 -0.0267282769575  0.2783642076448 1.0
Ag     2 -0.7732448073738  0.2777814730493  0.0862029546105 1.0
Ag     2 -0.2732448073738 -0.2222185269507 -0.0862029546105 1.0
Ag     2 -0.4717015357658  0.2769643293128 -0.4149555781070 1.0
Ag     2  0.0282984642342 -0.2230356706872  0.4149555781070 1.0
Ag     2  0.2226325016672 -0.0276895104709 -0.2190966783790 1.0
Ag     2 -0.2773674983328  0.4723104895291  0.2190966783790 1.0
END
