TITL 4Ag2Se_CONSTCUT_NOSYM-200810-162840-05c689 -0.0252 216.870889 -4.61182896E+004 0 0 12 (P1) n - 1
REM
REM Run started: Tue, 11 Aug 2020 00:15:39 +0100 in /lustre/scratch/uccabz1/launch_tmp/launcher_2020-08-10-15-28-38-888835
REM CASTEP 20.1 from code version af48c487+ pr-geom-scf-spinfix Tue Jun 2 15:39:59 2020 +0100
REM Functional PBE for solids (2008) Relativity Koelling-Harmon Dispersion off
REM Cut-off 300.0000 eV Grid scale 2.0000 Gmax 26.6208 1/A FBSC none
REM MP grid 4 4 3 Offset 0.000 0.000 0.000 No. kpts 24 Spacing 0.05
REM Total runtime: 28139.3 s
REM Overall efficiency: 97.1667 %
REM
REM 4Ag2Se_CONSTCUT_NOSYM.cell (04f5f378ecb9f162ba8e0859c4ea5e99)
REM
REM compiler GCC version 4.9.2
REM options -cpp -iprefix /lustre/shared/ucl/apps/gcc/4.9.2/bin/../lib/gcc/x86_64-unknown-linux-gnu/4.9.2/ -mtune=corei7 -march=x86-64 -g -Og
REM COMMAND_LINE
REM seed 1206068363 1716558839 992168673 826684739 87865619 -472950192 1434679377 2126567139 -1735071538 990951583 1134005845 -2090347419
REM
REM Se 3|2.1|7|7|9|40:41:32(qc=5)
REM Ag 3|2.2|7|7|9|40U:50:41:42(qc=5)
REM 
CELL 1.54180    5.61256    5.41912    7.24294   83.16972   94.96023   85.04866
LATT -1
SFAC Se Ag 
Se     1  0.2695405870222  0.0652976504024  0.2827207339269 1.0
Se     1 -0.2201988764818 -0.2680015976271  0.0821989427810 1.0
Se     1 -0.2950914048625  0.1887586983162 -0.3034621315794 1.0
Se     1  0.1194296604560 -0.3606892776381 -0.3363629537393 1.0
Ag     2  0.2632357257244 -0.2237682707959  0.0053497660893 1.0
Ag     2  0.0389724968575  0.3074886261533 -0.0294493202034 1.0
Ag     2 -0.4456906393074  0.2980564045252  0.0596433181355 1.0
Ag     2 -0.1029687008799  0.3892784780329  0.3729027498567 1.0
Ag     2  0.2333113906494  0.1167822202684 -0.3330819950171 1.0
Ag     2  0.3999129385179 -0.4735205125484  0.3848654756835 1.0
Ag     2 -0.2395827261610 -0.0913063310053  0.4044439208747 1.0
Ag     2 -0.3976273515348 -0.3163868880835 -0.2690700068084 1.0
END
