TITL 4Ag2Se_CONSTCUT_NOSYM-200810-185705-309f56 0.0425 219.094253 -4.61184926E+004 0 0 12 (P1) n - 1
REM
REM Run started: Tue, 11 Aug 2020 04:34:29 +0100 in /lustre/scratch/uccabz1/launch_tmp/launcher_2020-08-10-17-57-03-459199
REM CASTEP 20.1 from code version af48c487+ pr-geom-scf-spinfix Tue Jun 2 15:39:59 2020 +0100
REM Functional PBE for solids (2008) Relativity Koelling-Harmon Dispersion off
REM Cut-off 300.0000 eV Grid scale 2.0000 Gmax 26.6208 1/A FBSC none
REM MP grid 5 4 3 Offset 0.000 0.000 0.000 No. kpts 30 Spacing 0.05
REM Total runtime: 36253.5 s
REM Overall efficiency: 84.5833 %
REM
REM 4Ag2Se_CONSTCUT_NOSYM.cell (04f5f378ecb9f162ba8e0859c4ea5e99)
REM
REM compiler GCC version 4.9.2
REM options -cpp -iprefix /lustre/shared/ucl/apps/gcc/4.9.2/bin/../lib/gcc/x86_64-unknown-linux-gnu/4.9.2/ -mtune=corei7 -march=x86-64 -g -Og
REM COMMAND_LINE
REM seed -1903965732 240132240 1679327284 14382975 100869656 -1628002346 1971293186 -2011172922 1394101569 2057625475 -15997723 563845349
REM
REM Se 3|2.1|7|7|9|40:41:32(qc=5)
REM Ag 3|2.2|7|7|9|40U:50:41:42(qc=5)
REM 
CELL 1.54180    4.35600    7.52532    7.95427  117.95575  105.68851   90.23682
LATT -1
SFAC Se Ag 
Se     1  0.0735510515104  0.2536638125056 -0.0273847591400 1.0
Se     1  0.3591980946725  0.0496312384054 -0.4521256042135 1.0
Se     1 -0.3465293910827 -0.1771345615615  0.1244950131601 1.0
Se     1  0.1586393595502 -0.4500939020821  0.5487821326313 1.0
Ag     2  0.1713780250708 -0.3474726830614  0.2339060913158 1.0
Ag     2 -0.0311429970178 -0.2980389612949 -0.1330294619579 1.0
Ag     2  0.1618457211848  0.1139651243315  0.2270484329049 1.0
Ag     2 -0.3475962216440  0.3867020383081  0.2286880274046 1.0
Ag     2 -0.1972669397130 -0.1740154048396 -0.4448757760988 1.0
Ag     2 -0.1974235709025  0.2701123354657 -0.4569358490169 1.0
Ag     2 -0.5233759165794  0.4323271023358 -0.1396732051128 1.0
Ag     2  0.4815603849507 -0.0281620385123 -0.1279550418768 1.0
END
