TITL 4Ag2Se_CONSTCUT-200811-085430-b2f8f9 -0.0011 220.580768 -4.61185344E+004 0 0 12 (P4/nmm) n - 1
REM
REM Run started: Tue, 11 Aug 2020 11:54:12 +0100 in /lustre/scratch/uccabz1/launch_tmp/launcher_2020-08-11-07-54-28-662527
REM CASTEP 20.1 from code version af48c487+ pr-geom-scf-spinfix Tue Jun 2 15:39:59 2020 +0100
REM Functional PBE for solids (2008) Relativity Koelling-Harmon Dispersion off
REM Cut-off 300.0000 eV Grid scale 2.0000 Gmax 26.6208 1/A FBSC none
REM MP grid 4 4 4 Offset 0.000 0.000 0.000 No. kpts 8 Spacing 0.05
REM Total runtime: 10862 s
REM Overall efficiency: 94.75 %
REM
REM 4Ag2Se_CONSTCUT.cell (097ebf1fd09fb02df10c18b5c3809341)
REM
REM compiler GCC version 4.9.2
REM options -cpp -iprefix /lustre/shared/ucl/apps/gcc/4.9.2/bin/../lib/gcc/x86_64-unknown-linux-gnu/4.9.2/ -mtune=corei7 -march=x86-64 -g -Og
REM COMMAND_LINE
REM seed 994574804 -2001682944 -412338569 -134129552 -1578263430 1305911636 -1163079375 1685279804 -299333645 -674694242 -987248425 879000826
REM
REM Se 3|2.1|7|7|9|40:41:32(qc=5)
REM Ag 3|2.2|7|7|9|40U:50:41:42(qc=5)
REM 
CELL 1.54180    5.78939    5.77952    6.59239   90.00000   90.00000   90.00000
LATT -1
SFAC Se Ag 
Se     1  0.0002925698639  0.0983441812966  0.2105745262072 1.0
Se     1 -0.0002925698639 -0.4016558187034 -0.2105745262072 1.0
Se     1 -0.4997074301361  0.0983441812966 -0.2105745262072 1.0
Se     1  0.4997074301361 -0.4016558187034  0.2105745262072 1.0
Ag     2  0.4935345156248 -0.4010836059498 -0.1921535298800 1.0
Ag     2 -0.4935345156248  0.0989163940502  0.1921535298800 1.0
Ag     2 -0.0064654843752 -0.4010836059498  0.1921535298800 1.0
Ag     2  0.0064654843752  0.0989163940502 -0.1921535298800 1.0
Ag     2  0.2476015421632  0.3502494246531  0.4965791684293 1.0
Ag     2 -0.2476015421632 -0.1497505753469 -0.4965791684293 1.0
Ag     2 -0.2523984578368  0.3502494246531 -0.4965791684293 1.0
Ag     2  0.2523984578368 -0.1497505753469  0.4965791684293 1.0
END
