TITL 4Ag2Se_CONSTCUT_NOSYM-200810-225813-64a777 -0.0183 215.953057 -4.61185692E+004 0 0 12 (P-1) n - 1
REM
REM Run started: Tue, 11 Aug 2020 05:49:44 +0100 in /lustre/scratch/uccabz1/launch_tmp/launcher_2020-08-10-21-58-12-047615
REM CASTEP 20.1 from code version af48c487+ pr-geom-scf-spinfix Tue Jun 2 15:39:59 2020 +0100
REM Functional PBE for solids (2008) Relativity Koelling-Harmon Dispersion off
REM Cut-off 300.0000 eV Grid scale 2.0000 Gmax 26.6208 1/A FBSC none
REM MP grid 5 5 2 Offset 0.000 0.000 0.000 No. kpts 25 Spacing 0.05
REM Total runtime: 27143.1 s
REM Overall efficiency: 84.75 %
REM
REM 4Ag2Se_CONSTCUT_NOSYM.cell (04f5f378ecb9f162ba8e0859c4ea5e99)
REM
REM compiler GCC version 4.9.2
REM options -cpp -iprefix /lustre/shared/ucl/apps/gcc/4.9.2/bin/../lib/gcc/x86_64-unknown-linux-gnu/4.9.2/ -mtune=corei7 -march=x86-64 -g -Og
REM COMMAND_LINE
REM seed -580855512 362192749 1942465309 -1881725608 -730261333 -1644064615 2023997801 1683571212 1845673618 1636087727 495856314 -350696209
REM
REM Se 3|2.1|7|7|9|40:41:32(qc=5)
REM Ag 3|2.2|7|7|9|40U:50:41:42(qc=5)
REM 
CELL 1.54180    4.09003    4.09316   12.95292   86.29145   93.57336   89.47408
LATT -1
SFAC Se Ag 
Se     1  0.2921765897041 -0.4351169948797 -0.0668391209785 1.0
Se     1 -0.0904414492430  0.2212089830974  0.1413919909046 1.0
Se     1 -0.5332563095816  0.6601723176145  0.4344369473794 1.0
Se     1 -0.2643083856909  0.1192244246865 -0.3596247100844 1.0
Ag     2 -0.0379951062673 -0.2939536719761  0.2878644605705 1.0
Ag     2  0.4234735955273 -0.2513402784782  0.1265164852665 1.0
Ag     2  0.0003112479302  0.1612449147682  0.4543648741488 1.0
Ag     2  0.2384797377215  0.0818021155487 -0.2128697815629 1.0
Ag     2  0.2022106318731 -0.3803932586609 -0.3792566670319 1.0
Ag     2 -0.2238594285197  0.0379588951735 -0.0518405964498 1.0
Ag     2  0.7388359582823 -0.4172557252291 -0.2147415385955 1.0
Ag     2  0.4608813182641  0.2042095783350  0.2890315564332 1.0
END
