TITL 4Ag2Se_CONSTCUT_NOSYM-200810-223552-b8ac65 -0.0223 215.835521 -4.61182037E+004 0 0 12 (P-1) n - 1
REM
REM Run started: Tue, 11 Aug 2020 03:23:31 +0100 in /lustre/scratch/uccabz1/launch_tmp/launcher_2020-08-11-00-20-45-956424
REM CASTEP 20.1 from code version af48c487+ pr-geom-scf-spinfix Tue Jun 2 15:39:59 2020 +0100
REM Functional PBE for solids (2008) Relativity Koelling-Harmon Dispersion off
REM Cut-off 300.0000 eV Grid scale 2.0000 Gmax 26.6208 1/A FBSC none
REM MP grid 4 4 3 Offset 0.000 0.000 0.000 No. kpts 24 Spacing 0.05
REM Total runtime: 7500.87 s
REM Overall efficiency: 95.1667 %
REM
REM
REM
REM compiler GCC version 4.9.2
REM options -cpp -iprefix /lustre/shared/ucl/apps/gcc/4.9.2/bin/../lib/gcc/x86_64-unknown-linux-gnu/4.9.2/ -mtune=corei7 -march=x86-64 -g -Og
REM COMMAND_LINE
REM seed -227415201 -1774306409 827982785 466825358 1356741474 -1318721495 -1486177445 -492212833 1425073441 -1392993560 241701654 -1708734720
REM
REM Se 3|2.1|7|7|9|40:41:32(qc=5)
REM Ag 3|2.2|7|7|9|40U:50:41:42(qc=5)
REM 
CELL 1.54180    5.60016    5.63594    7.62323   79.74850   75.16884   68.77281
LATT -1
SFAC Se Ag 
Se     1  0.2302318851841 -0.1823358164851 -0.2743107418475 1.0
Se     1 -0.1372262097093  0.4195835910046 -0.0662826457282 1.0
Se     1  0.0558685369621  0.5218247781127  0.3349226199223 1.0
Se     1  0.4213162284796 -0.0778613782005  0.1266078808034 1.0
Ag     2 -0.4119242050801  0.4231401280496  0.2950507895747 1.0
Ag     2  0.3516950457631  0.4017144672837 -0.0193132427438 1.0
Ag     2 -0.3023628512448 -0.0832005309298 -0.2338630878369 1.0
Ag     2  0.2583855597770  0.3164563540217 -0.3574441443506 1.0
Ag     2 -0.2877703241805 -0.5818917640413 -0.3661147413339 1.0
Ag     2 -0.0658969349880 -0.0639241164596  0.0773588553500 1.0
Ag     2 -0.4263522040498 -0.0803492677008  0.4265210788481 1.0
Ag     2  0.0251884730866  0.0207835553447  0.4166633793423 1.0
END
