TITL 4Ag2Se_CONSTCUT_NOSYM-200810-194353-60dd5e 0.0343 216.419994 -4.61184152E+004 0 0 12 (P1) n - 1
REM
REM Run started: Tue, 11 Aug 2020 02:57:50 +0100 in /lustre/scratch/uccabz1/launch_tmp/launcher_2020-08-10-18-43-51-099730
REM CASTEP 20.1 from code version af48c487+ pr-geom-scf-spinfix Tue Jun 2 15:39:59 2020 +0100
REM Functional PBE for solids (2008) Relativity Koelling-Harmon Dispersion off
REM Cut-off 300.0000 eV Grid scale 2.0000 Gmax 26.6208 1/A FBSC none
REM MP grid 4 4 3 Offset 0.000 0.000 0.000 No. kpts 24 Spacing 0.05
REM Total runtime: 26156.6 s
REM Overall efficiency: 97.8 %
REM
REM 4Ag2Se_CONSTCUT_NOSYM.cell (04f5f378ecb9f162ba8e0859c4ea5e99)
REM
REM compiler GCC version 4.9.2
REM options -cpp -iprefix /lustre/shared/ucl/apps/gcc/4.9.2/bin/../lib/gcc/x86_64-unknown-linux-gnu/4.9.2/ -mtune=corei7 -march=x86-64 -g -Og
REM COMMAND_LINE
REM seed -1123425632 -457950642 1985475098 723679579 170952972 -306244720 2090248176 342316377 379171685 -1009383318 -1118864076 1174073523
REM
REM Se 3|2.1|7|7|9|40:41:32(qc=5)
REM Ag 3|2.2|7|7|9|40U:50:41:42(qc=5)
REM 
CELL 1.54180    5.30325    5.78206    7.12327   94.74265   96.12132   90.20395
LATT -1
SFAC Se Ag 
Se     1 -0.1257224988190 -0.3629280587517  0.5021934627855 1.0
Se     1  0.3938264284103  0.0725073022240 -0.4612748301852 1.0
Se     1  0.2145614478675 -0.3770656590827  0.1292437163376 1.0
Se     1 -0.1792400593707  0.0955417388074 -0.0854622198846 1.0
Ag     2  0.2909910645775  0.3376796740365 -0.1573656556404 1.0
Ag     2 -0.3271922083898 -0.1298461825554  0.2000493422390 1.0
Ag     2 -0.1064146838308  0.1566247004990  0.5260546408725 1.0
Ag     2 -0.2221860729520 -0.4188048330062 -0.1462836707641 1.0
Ag     2  0.3111722465157 -0.1522854257278 -0.1575771988640 1.0
Ag     2  0.3753589249469 -0.4437646289679  0.5108849663660 1.0
Ag     2  0.1786605780623  0.1291036684927  0.1984082781072 1.0
Ag     2 -0.3356282670180  0.3715325040322  0.1954594686304 1.0
END
