TITL 4Ag2Se_CONSTCUT_NOSYM-200810-183939-3e245d -0.0651 234.317690 -4.61182499E+004 0 0 12 (P1) n - 1
REM
REM Run started: Tue, 11 Aug 2020 10:50:59 +0100 in /lustre/scratch/uccabz1/launch_tmp/launcher_2020-08-10-17-39-37-519232
REM CASTEP 20.1 from code version af48c487+ pr-geom-scf-spinfix Tue Jun 2 15:39:59 2020 +0100
REM Functional PBE for solids (2008) Relativity Koelling-Harmon Dispersion off
REM Cut-off 300.0000 eV Grid scale 2.0000 Gmax 26.6208 1/A FBSC none
REM MP grid 4 4 4 Offset 0.000 0.000 0.000 No. kpts 32 Spacing 0.05
REM Total runtime: 58440.2 s
REM Overall efficiency: 98.1538 %
REM
REM 4Ag2Se_CONSTCUT_NOSYM.cell (04f5f378ecb9f162ba8e0859c4ea5e99)
REM
REM compiler GCC version 4.9.2
REM options -cpp -iprefix /lustre/shared/ucl/apps/gcc/4.9.2/bin/../lib/gcc/x86_64-unknown-linux-gnu/4.9.2/ -mtune=corei7 -march=x86-64 -g -Og
REM COMMAND_LINE
REM seed 1732189183 553600396 -1971581546 2099586144 -1760997683 -1562867312 1164931741 299650982 1260405534 975512326 1580569140 1485793362
REM
REM Se 3|2.1|7|7|9|40:41:32(qc=5)
REM Ag 3|2.2|7|7|9|40U:50:41:42(qc=5)
REM 
CELL 1.54180    6.54070    7.30225    7.29357   56.09452   59.42540   58.33802
LATT -1
SFAC Se Ag 
Se     1  0.4845916021688  0.0066477052983  0.4021962116578 1.0
Se     1 -0.0954342565500 -0.4531111832872 -0.1074188068117 1.0
Se     1  0.2027437908683 -0.1035352899502  0.0944327839880 1.0
Se     1 -0.3266319720966  0.4093062172923 -0.4402192981098 1.0
Ag     2 -0.1982165337223  0.2030915940021 -0.0698312099216 1.0
Ag     2 -0.1020524444328 -0.2963372797709  0.1600291192075 1.0
Ag     2 -0.3676682387842 -0.0096164207637 -0.1763217922846 1.0
Ag     2  0.2622369933295  0.2802641844327  0.0869444421864 1.0
Ag     2 -0.1764022088064  0.1536623355804  0.3428708560403 1.0
Ag     2  0.4357521734911 -0.3348947473132 -0.1716285218937 1.0
Ag     2  0.3140275859330 -0.5585853675604  0.3406778677552 1.0
Ag     2  0.2086510086015 -0.2482007479601 -0.4743361518138 1.0
END
