TITL 4Ag2Se_CONSTCUT_NOSYM-200811-030005-b1a9b8 0.1124 227.164315 -4.61182089E+004 0 0 12 (P1) n - 1
REM
REM Run started: Tue, 11 Aug 2020 14:43:09 +0100 in /lustre/scratch/uccabz1/launch_tmp/launcher_2020-08-11-02-00-04-161633
REM CASTEP 20.1 from code version af48c487+ pr-geom-scf-spinfix Tue Jun 2 15:39:59 2020 +0100
REM Functional PBE for solids (2008) Relativity Koelling-Harmon Dispersion off
REM Cut-off 300.0000 eV Grid scale 2.0000 Gmax 26.6208 1/A FBSC none
REM MP grid 6 4 3 Offset 0.000 0.000 0.000 No. kpts 36 Spacing 0.05
REM Total runtime: 47188.4 s
REM Overall efficiency: 98.75 %
REM
REM 4Ag2Se_CONSTCUT_NOSYM.cell (04f5f378ecb9f162ba8e0859c4ea5e99)
REM
REM compiler GCC version 4.9.2
REM options -cpp -iprefix /lustre/shared/ucl/apps/gcc/4.9.2/bin/../lib/gcc/x86_64-unknown-linux-gnu/4.9.2/ -mtune=corei7 -march=x86-64 -g -Og
REM COMMAND_LINE
REM seed -25780399 755894459 558754161 -247971606 -684944307 1997668869 -1925522127 -1703345492 954705728 1144749680 1760900496 -1356748948
REM
REM Se 3|2.1|7|7|9|40:41:32(qc=5)
REM Ag 3|2.2|7|7|9|40U:50:41:42(qc=5)
REM 
CELL 1.54180    4.56328    5.85097    9.90808   91.23605  120.79682   90.04134
LATT -1
SFAC Se Ag 
Se     1 -0.1662225944957 -0.0350372585713  0.3344502553476 1.0
Se     1 -0.3034620386933 -0.4836076072278 -0.3593263921317 1.0
Se     1  0.1412117168781 -0.4673768120726  0.0689712479522 1.0
Se     1  0.1071377789100  0.0262903889069 -0.2001680722393 1.0
Ag     2 -0.4354242161684 -0.2624895922103 -0.0498214679638 1.0
Ag     2 -0.2264016504353  0.3159327828513  0.1621034436774 1.0
Ag     2  0.1890331102708  0.0148103499656  0.0864327406974 1.0
Ag     2  0.0322862837889 -0.5583142407579  0.4972687085996 1.0
Ag     2 -0.6148055092233 -0.1006270356665 -0.3675880228336 1.0
Ag     2  0.3569091050121 -0.3311516807820  0.3536945888741 1.0
Ag     2 -0.3859061960195  0.2746915188793 -0.1512823417306 1.0
Ag     2  0.4373874101757  0.1783020866852  0.4132817117507 1.0
END
