TITL 4Ag2Se_CONSTCUT-200811-072323-ff3458 -0.0247 233.987062 -4.61172733E+004 0 0 12 (R3) n - 1
REM
REM Run started: Tue, 11 Aug 2020 09:42:23 +0100 in /lustre/scratch/uccabz1/launch_tmp/launcher_2020-08-11-06-23-21-342101
REM CASTEP 20.1 from code version af48c487+ pr-geom-scf-spinfix Tue Jun 2 15:39:59 2020 +0100
REM Functional PBE for solids (2008) Relativity Koelling-Harmon Dispersion off
REM Cut-off 300.0000 eV Grid scale 2.0000 Gmax 26.6208 1/A FBSC none
REM MP grid 4 4 4 Offset 0.000 0.000 0.000 No. kpts 12 Spacing 0.05
REM Total runtime: 8438.68 s
REM Overall efficiency: 80.2857 %
REM
REM 4Ag2Se_CONSTCUT.cell (097ebf1fd09fb02df10c18b5c3809341)
REM
REM compiler GCC version 4.9.2
REM options -cpp -iprefix /lustre/shared/ucl/apps/gcc/4.9.2/bin/../lib/gcc/x86_64-unknown-linux-gnu/4.9.2/ -mtune=corei7 -march=x86-64 -g -Og
REM COMMAND_LINE
REM seed -1087248416 -1232691222 -369012599 342355933 2040215184 -1288500845 -1236216523 2001687280 -2078739771 -1402051752 2143129555 1270317574
REM
REM Se 3|2.1|7|7|9|40:41:32(qc=5)
REM Ag 3|2.2|7|7|9|40U:50:41:42(qc=5)
REM 
CELL 1.54180    6.61008    6.61008    6.61008   66.78532   66.78532   66.78532
LATT -1
SFAC Se Ag 
Se     1  0.1262104719917 -0.4403013094326 -0.1484604465584 1.0
Se     1 -0.1484604465584  0.1262104719917 -0.4403013094326 1.0
Se     1 -0.4403013094326 -0.1484604465584  0.1262104719917 1.0
Se     1  0.3576795937341  0.3576795937341  0.3576795937341 1.0
Ag     2  0.2558616892898 -0.2017378405284  0.0146898978548 1.0
Ag     2  0.0146898978548  0.2558616892898 -0.2017378405284 1.0
Ag     2 -0.2017378405284  0.0146898978548  0.2558616892898 1.0
Ag     2  0.3019899417828 -0.0495332702319 -0.4566646189745 1.0
Ag     2 -0.4566646189745  0.3019899417828 -0.0495332702319 1.0
Ag     2 -0.0495332702319 -0.4566646189745  0.3019899417828 1.0
Ag     2 -0.2816851162075 -0.2816851162075 -0.2816851162075 1.0
Ag     2 -0.4766229927200 -0.4766229927200 -0.4766229927200 1.0
END
