TITL 4Ag2Se_CONSTCUT_NOSYM-200810-194207-9353ed -0.0230 214.333132 -4.61182799E+004 0 0 12 (P1) n - 1
REM
REM Run started: Tue, 11 Aug 2020 00:51:16 +0100 in /lustre/scratch/uccabz1/launch_tmp/launcher_2020-08-10-18-42-05-337786
REM CASTEP 20.1 from code version af48c487+ pr-geom-scf-spinfix Tue Jun 2 15:39:59 2020 +0100
REM Functional PBE for solids (2008) Relativity Koelling-Harmon Dispersion off
REM Cut-off 300.0000 eV Grid scale 2.0000 Gmax 26.6208 1/A FBSC none
REM MP grid 5 6 2 Offset 0.000 0.000 0.000 No. kpts 30 Spacing 0.05
REM Total runtime: 18676.2 s
REM Overall efficiency: 96.625 %
REM
REM 4Ag2Se_CONSTCUT_NOSYM.cell (04f5f378ecb9f162ba8e0859c4ea5e99)
REM
REM compiler GCC version 4.9.2
REM options -cpp -iprefix /lustre/shared/ucl/apps/gcc/4.9.2/bin/../lib/gcc/x86_64-unknown-linux-gnu/4.9.2/ -mtune=corei7 -march=x86-64 -g -Og
REM COMMAND_LINE
REM seed 511876868 -626209787 -75365236 -1904256562 -919966582 -1266554630 1616092868 1194970628 -1913048008 -364930591 1224464992 -1518236402
REM
REM Se 3|2.1|7|7|9|40:41:32(qc=5)
REM Ag 3|2.2|7|7|9|40U:50:41:42(qc=5)
REM 
CELL 1.54180    4.00406    3.99913   13.38609   89.54750   90.42963   89.74699
LATT -1
SFAC Se Ag 
Se     1  0.0766264236073  0.0332254326010 -0.4876660831422 1.0
Se     1  0.0817689335315  0.0521780008581 -0.1850587475660 1.0
Se     1  0.3830242416157  0.4661429025075  0.3148006928852 1.0
Se     1  0.0934436222304  0.0102358318292  0.1170546982841 1.0
Ag     2 -0.3952910160204  0.5152546051539  0.1336544904404 1.0
Ag     2 -0.4194726120164 -0.4575485821613 -0.1850339415297 1.0
Ag     2 -0.4127007353623 -0.4573512792477  0.4976585132341 1.0
Ag     2  0.0878556360777 -0.4757413716290 -0.0261015295779 1.0
Ag     2 -0.1432560375573 -0.0420705420832  0.3134855507867 1.0
Ag     2  0.0783095950469 -0.4615544939819 -0.3440215690388 1.0
Ag     2 -0.4204534934822  0.0394895523339 -0.3439749002396 1.0
Ag     2 -0.4107307576709  0.0256493438195 -0.0259662745363 1.0
END
