TITL 4Ag2Se_CONSTCUT-200811-040559-949e28 0.0783 238.750133 -4.61169776E+004 0 0 12 (R3) n - 1
REM
REM Run started: Tue, 11 Aug 2020 08:01:38 +0100 in /lustre/scratch/uccabz1/launch_tmp/launcher_2020-08-11-03-05-57-694713
REM CASTEP 20.1 from code version af48c487+ pr-geom-scf-spinfix Tue Jun 2 15:39:59 2020 +0100
REM Functional PBE for solids (2008) Relativity Koelling-Harmon Dispersion off
REM Cut-off 300.0000 eV Grid scale 2.0000 Gmax 26.6208 1/A FBSC none
REM MP grid 4 4 4 Offset 0.000 0.000 0.000 No. kpts 12 Spacing 0.05
REM Total runtime: 14220.4 s
REM Overall efficiency: 80.7778 %
REM
REM 4Ag2Se_CONSTCUT.cell (097ebf1fd09fb02df10c18b5c3809341)
REM
REM compiler GCC version 4.9.2
REM options -cpp -iprefix /lustre/shared/ucl/apps/gcc/4.9.2/bin/../lib/gcc/x86_64-unknown-linux-gnu/4.9.2/ -mtune=corei7 -march=x86-64 -g -Og
REM COMMAND_LINE
REM seed -258551823 1292261680 -1557343193 1422202532 -484039486 -1070134588 -452326605 898441481 -877187818 -628237762 165614148 -1204553437
REM
REM Se 3|2.1|7|7|9|40:41:32(qc=5)
REM Ag 3|2.2|7|7|9|40U:50:41:42(qc=5)
REM 
CELL 1.54180    7.05012    7.05012    7.05012   58.40700   58.40700   58.40700
LATT -1
SFAC Se Ag 
Se     1 -0.2138135363457  0.4366372437920  0.2010778069036 1.0
Se     1  0.4366372437920  0.2010778069036 -0.2138135363457 1.0
Se     1  0.2010778069036 -0.2138135363457  0.4366372437920 1.0
Se     1 -0.3583367332388 -0.3583367332388 -0.3583367332388 1.0
Ag     2 -0.4033440699344  0.1011836322054  0.4036282156772 1.0
Ag     2  0.1011836322054  0.4036282156772 -0.4033440699345 1.0
Ag     2  0.4036282156772 -0.4033440699345  0.1011836322054 1.0
Ag     2  0.1884837797472 -0.0807686304101 -0.2792759679186 1.0
Ag     2 -0.0807686304101 -0.2792759679186  0.1884837797472 1.0
Ag     2 -0.2792759679186  0.1884837797472 -0.0807686304101 1.0
Ag     2 -0.1989273920886 -0.1989273920886 -0.1989273920886 1.0
Ag     2  0.0726389516108  0.0726389516108  0.0726389516108 1.0
END
