TITL 4Ag2Se_CONSTCUT-200811-143701-aaf6f8 -0.0129 226.734937 -4.61174721E+004 0 0 12 (R3) n - 1
REM
REM Run started: Tue, 11 Aug 2020 23:27:09 +0100 in /lustre/scratch/uccabz1/launch_tmp/launcher_2020-08-11-13-36-59-781850
REM CASTEP 20.1 from code version af48c487+ pr-geom-scf-spinfix Tue Jun 2 15:39:59 2020 +0100
REM Functional PBE for solids (2008) Relativity Koelling-Harmon Dispersion off
REM Cut-off 300.0000 eV Grid scale 2.0000 Gmax 26.6208 1/A FBSC none
REM MP grid 4 4 4 Offset 0.000 0.000 0.000 No. kpts 32 Spacing 0.05
REM Total runtime: 32000.9 s
REM Overall efficiency: 98.1111 %
REM
REM 4Ag2Se_CONSTCUT.cell (097ebf1fd09fb02df10c18b5c3809341)
REM
REM compiler GCC version 4.9.2
REM options -cpp -iprefix /lustre/shared/ucl/apps/gcc/4.9.2/bin/../lib/gcc/x86_64-unknown-linux-gnu/4.9.2/ -mtune=corei7 -march=x86-64 -g -Og
REM COMMAND_LINE
REM seed -1883984490 10789897 1508094401 -2082541887 1088918436 1550648474 -1195619626 1174441539 524841886 128151159 1715766567 -1461069528
REM
REM Se 3|2.1|7|7|9|40:41:32(qc=5)
REM Ag 3|2.2|7|7|9|40U:50:41:42(qc=5)
REM 
CELL 1.54180    7.13407    7.13407    6.58993   57.22881   57.22881   60.00000
LATT -1
SFAC Se Ag 
Se     1  0.0528529150355  0.3487055524987 -0.1880089059828 1.0
Se     1  0.3487055524987 -0.2135494615514 -0.1880089059828 1.0
Se     1 -0.2135494615514  0.0528529150355 -0.1880089059828 1.0
Se     1 -0.4231638699725 -0.4231638699725  0.2694917099175 1.0
Ag     2 -0.2270967759935  0.5695432048047 -0.4469851967748 1.0
Ag     2  0.5695432048047  0.1045388679636 -0.4469851967748 1.0
Ag     2  0.1045388679636 -0.2270967759935 -0.4469851967748 1.0
Ag     2  0.2606493604219 -0.5426022611494  0.2878750576926 1.0
Ag     2 -0.5426022611494 -0.0059220569651  0.2878750576926 1.0
Ag     2 -0.0059220569651  0.2606493604219  0.2878750576926 1.0
Ag     2  0.3871779397354  0.3871779397354 -0.1615337192062 1.0
Ag     2 -0.0536274814946 -0.0536274814946  0.1608825444838 1.0
END
