TITL 4Ag2Se_CONSTCUT-200811-150003-9e3e94 0.0451 217.720221 -4.61185929E+004 0 0 12 (Cmce) n - 1
REM
REM Run started: Tue, 11 Aug 2020 17:56:35 +0100 in /lustre/scratch/uccabz1/launch_tmp/launcher_2020-08-11-14-00-01-283635
REM CASTEP 20.1 from code version af48c487+ pr-geom-scf-spinfix Tue Jun 2 15:39:59 2020 +0100
REM Functional PBE for solids (2008) Relativity Koelling-Harmon Dispersion off
REM Cut-off 300.0000 eV Grid scale 2.0000 Gmax 26.6208 1/A FBSC none
REM MP grid 5 5 2 Offset 0.000 0.000 0.000 No. kpts 9 Spacing 0.05
REM Total runtime: 10819.6 s
REM Overall efficiency: 97.2857 %
REM
REM 4Ag2Se_CONSTCUT.cell (097ebf1fd09fb02df10c18b5c3809341)
REM
REM compiler GCC version 4.9.2
REM options -cpp -iprefix /lustre/shared/ucl/apps/gcc/4.9.2/bin/../lib/gcc/x86_64-unknown-linux-gnu/4.9.2/ -mtune=corei7 -march=x86-64 -g -Og
REM COMMAND_LINE
REM seed 1365312321 -1910799133 1491479410 186162034 -1434966839 2053937685 -123507650 -91829382 1417192423 -1174193306 -820981540 204120715
REM
REM Se 3|2.1|7|7|9|40:41:32(qc=5)
REM Ag 3|2.2|7|7|9|40U:50:41:42(qc=5)
REM 
CELL 1.54180    4.11090    4.11090   12.88702   90.00000   90.00000   88.60644
LATT -1
SFAC Se Ag 
Se     1 -0.2895875854117 -0.0703498486373 -0.3966798650675 1.0
Se     1  0.0703498486373  0.2895875854117  0.3966798650675 1.0
Se     1 -0.4296501513627 -0.2104124145883  0.1033201349325 1.0
Se     1  0.2104124145883  0.4296501513627 -0.1033201349325 1.0
Ag     2  0.2366105743956  0.4576911161437 -0.4100237139012 1.0
Ag     2 -0.4576911161437 -0.2366105743956  0.4100237139012 1.0
Ag     2  0.0423088838563  0.2633894256044  0.0899762860988 1.0
Ag     2 -0.2633894256044 -0.0423088838563 -0.0899762860988 1.0
Ag     2  0.2343343960646 -0.0409831824579 -0.2502954941690 1.0
Ag     2  0.0409831824579 -0.2343343960646  0.2502954941690 1.0
Ag     2  0.5409831824579  0.2656656039354  0.2497045058310 1.0
Ag     2 -0.2656656039354 -0.5409831824579 -0.2497045058310 1.0
END
