TITL 4Ag2Se_CONSTCUT-200811-055434-7d5cca -0.0090 231.227456 -4.61180782E+004 0 0 12 (Cc) n - 1
REM
REM Run started: Tue, 11 Aug 2020 12:58:01 +0100 in /lustre/scratch/uccabz1/launch_tmp/launcher_2020-08-11-04-54-33-020680
REM CASTEP 20.1 from code version af48c487+ pr-geom-scf-spinfix Tue Jun 2 15:39:59 2020 +0100
REM Functional PBE for solids (2008) Relativity Koelling-Harmon Dispersion off
REM Cut-off 300.0000 eV Grid scale 2.0000 Gmax 26.6208 1/A FBSC none
REM MP grid 5 5 3 Offset 0.000 0.000 0.000 No. kpts 24 Spacing 0.05
REM Total runtime: 25551.8 s
REM Overall efficiency: 97.2 %
REM
REM 4Ag2Se_CONSTCUT.cell (097ebf1fd09fb02df10c18b5c3809341)
REM
REM compiler GCC version 4.9.2
REM options -cpp -iprefix /lustre/shared/ucl/apps/gcc/4.9.2/bin/../lib/gcc/x86_64-unknown-linux-gnu/4.9.2/ -mtune=corei7 -march=x86-64 -g -Og
REM COMMAND_LINE
REM seed 1471168178 -355268787 -940255003 -1767988093 -1578821882 -715844228 -1192486766 -2135087549 1683507199 1673099432 -1277691207 -276502597
REM
REM Se 3|2.1|7|7|9|40:41:32(qc=5)
REM Ag 3|2.2|7|7|9|40U:50:41:42(qc=5)
REM 
CELL 1.54180    5.37657    5.37657    9.19086   70.03663   70.03663   92.01414
LATT -1
SFAC Se Ag 
Se     1 -0.3530631722720  0.3802819179926 -0.0962542236457 1.0
Se     1  0.3802819179926 -0.3530631722720  0.4037457763543 1.0
Se     1  0.0327333952999 -0.0831448945427  0.0152744392867 1.0
Se     1 -0.0831448945427  0.0327333952999 -0.4847255607133 1.0
Ag     2  0.1175636740982  0.4738918489544 -0.0557183256275 1.0
Ag     2  0.4738918489544  0.1175636740982  0.4442816743725 1.0
Ag     2  0.2500392982821  0.0675491401935  0.2007611143816 1.0
Ag     2  0.0675491401935  0.2500392982821 -0.2992388856184 1.0
Ag     2 -0.4399519347849  0.5760497274380  0.1285336191091 1.0
Ag     2  0.5760497274380 -0.4399519347849 -0.3714663808909 1.0
Ag     2 -0.0297516811771  0.4971263805180  0.2827919764958 1.0
Ag     2  0.4971263805180 -0.0297516811771 -0.2172080235042 1.0
END
