TITL 4Ag2Se_CONSTCUT-200811-063056-41aad7 0.0136 238.779558 -4.61177311E+004 0 0 12 (Pc) n - 1
REM
REM Run started: Tue, 11 Aug 2020 09:54:32 +0100 in /lustre/scratch/uccabz1/launch_tmp/launcher_2020-08-11-05-30-54-405335
REM CASTEP 20.1 from code version af48c487+ pr-geom-scf-spinfix Tue Jun 2 15:39:59 2020 +0100
REM Functional PBE for solids (2008) Relativity Koelling-Harmon Dispersion off
REM Cut-off 300.0000 eV Grid scale 2.0000 Gmax 26.6208 1/A FBSC none
REM MP grid 5 3 3 Offset 0.000 0.000 0.000 No. kpts 15 Spacing 0.05
REM Total runtime: 12292.6 s
REM Overall efficiency: 83 %
REM
REM 4Ag2Se_CONSTCUT.cell (097ebf1fd09fb02df10c18b5c3809341)
REM
REM compiler GCC version 4.9.2
REM options -cpp -iprefix /lustre/shared/ucl/apps/gcc/4.9.2/bin/../lib/gcc/x86_64-unknown-linux-gnu/4.9.2/ -mtune=corei7 -march=x86-64 -g -Og
REM COMMAND_LINE
REM seed 87670416 1001120986 -992162163 -1848016517 -533097322 1541257243 382429653 -1158780109 400179705 669505256 178564441 362134283
REM
REM Se 3|2.1|7|7|9|40:41:32(qc=5)
REM Ag 3|2.2|7|7|9|40U:50:41:42(qc=5)
REM 
CELL 1.54180    4.25418    7.15733    8.24766  108.04329   90.00000   90.00000
LATT -1
SFAC Se Ag 
Se     1 -0.4260670795903  0.4627235287332  0.0072129877295 1.0
Se     1  0.4260670795903  0.4627235287332  0.5072129877295 1.0
Se     1  0.2513334121207 -0.0185078481311  0.0284342464719 1.0
Se     1 -0.2513334121207 -0.0185078481311 -0.4715657535281 1.0
Ag     2  0.3023763503079 -0.1681290795664 -0.3039046893308 1.0
Ag     2 -0.3023763503079 -0.1681290795664  0.1960953106692 1.0
Ag     2 -0.0465904752882  0.6216159354772  0.4129049007171 1.0
Ag     2  0.0465904752882 -0.3783840645228 -0.0870950992829 1.0
Ag     2  0.2008984600389  0.1013709948274  0.3654777066740 1.0
Ag     2 -0.2008984600389  0.1013709948274 -0.1345222933260 1.0
Ag     2  0.2799609492494 -0.7396334313403 -0.2827328522618 1.0
Ag     2 -0.2799609492494  0.2603665686597  0.2172671477382 1.0
END
