TITL 4Ag2Se_CONSTCUT_NOSYM-200810-213655-9fb045 0.0355 228.844524 -4.61177095E+004 0 0 12 (P1) n - 1
REM
REM Run started: Tue, 11 Aug 2020 08:00:35 +0100 in /lustre/scratch/uccabz1/launch_tmp/launcher_2020-08-10-20-36-53-396264
REM CASTEP 20.1 from code version af48c487+ pr-geom-scf-spinfix Tue Jun 2 15:39:59 2020 +0100
REM Functional PBE for solids (2008) Relativity Koelling-Harmon Dispersion off
REM Cut-off 300.0000 eV Grid scale 2.0000 Gmax 26.6208 1/A FBSC none
REM MP grid 6 3 3 Offset 0.000 0.000 0.000 No. kpts 27 Spacing 0.05
REM Total runtime: 37552 s
REM Overall efficiency: 97.9091 %
REM
REM 4Ag2Se_CONSTCUT_NOSYM.cell (04f5f378ecb9f162ba8e0859c4ea5e99)
REM
REM compiler GCC version 4.9.2
REM options -cpp -iprefix /lustre/shared/ucl/apps/gcc/4.9.2/bin/../lib/gcc/x86_64-unknown-linux-gnu/4.9.2/ -mtune=corei7 -march=x86-64 -g -Og
REM COMMAND_LINE
REM seed 1600785000 1664120894 -102137547 -59025671 -313400278 -536543643 -355832826 -1311685794 -1626486992 -1440260858 1083829305 -929305094
REM
REM Se 3|2.1|7|7|9|40:41:32(qc=5)
REM Ag 3|2.2|7|7|9|40U:50:41:42(qc=5)
REM 
CELL 1.54180    4.13081    7.06386    8.66768   99.44812  107.29286  102.28049
LATT -1
SFAC Se Ag 
Se     1  0.4557306697806 -0.1100464476116  0.4772022716431 1.0
Se     1 -0.0508839522518  0.4939811516514 -0.3124387084649 1.0
Se     1 -0.0115599703338  0.1848926930808  0.1823926287680 1.0
Se     1  0.2225936504894  0.0262549222135 -0.1763859375085 1.0
Ag     2 -0.4199459983465 -0.2389332533984 -0.2529619285220 1.0
Ag     2  0.1738232519972 -0.4399235820981  0.2400043159355 1.0
Ag     2  0.5190765513470 -0.4461561504345 -0.0088591222110 1.0
Ag     2 -0.3447585286458  0.3288931182332  0.3680049681102 1.0
Ag     2  0.1756693983460 -0.1534901023995  0.0563344969625 1.0
Ag     2 -0.1421213011056  0.2831768460990 -0.1023152990665 1.0
Ag     2 -0.1835424848668 -0.1541740748512  0.2893973596757 1.0
Ag     2  0.2337673135901  0.2101436795155 -0.4345384453221 1.0
END
