TITL 4Ag2Se_CONSTCUT-200811-145720-c39b55 -0.0287 223.259737 -4.61176724E+004 0 0 12 (C2/m) n - 1
REM
REM Run started: Tue, 11 Aug 2020 19:50:27 +0100 in /lustre/scratch/uccabz1/launch_tmp/launcher_2020-08-11-13-57-18-513833
REM CASTEP 20.1 from code version af48c487+ pr-geom-scf-spinfix Tue Jun 2 15:39:59 2020 +0100
REM Functional PBE for solids (2008) Relativity Koelling-Harmon Dispersion off
REM Cut-off 300.0000 eV Grid scale 2.0000 Gmax 26.6208 1/A FBSC none
REM MP grid 5 4 3 Offset 0.000 0.000 0.000 No. kpts 28 Spacing 0.05
REM Total runtime: 17752.8 s
REM Overall efficiency: 96.875 %
REM
REM 4Ag2Se_CONSTCUT.cell (097ebf1fd09fb02df10c18b5c3809341)
REM
REM compiler GCC version 4.9.2
REM options -cpp -iprefix /lustre/shared/ucl/apps/gcc/4.9.2/bin/../lib/gcc/x86_64-unknown-linux-gnu/4.9.2/ -mtune=corei7 -march=x86-64 -g -Og
REM COMMAND_LINE
REM seed 1502197911 -6711694 -147532239 -836386847 -1757707423 -800204135 -1144968760 767468917 -154247246 42071787 -212838113 -1454893796
REM
REM Se 3|2.1|7|7|9|40:41:32(qc=5)
REM Ag 3|2.2|7|7|9|40U:50:41:42(qc=5)
REM 
CELL 1.54180    5.32635    6.68777    7.31416   81.79908   68.64707   66.93589
LATT -1
SFAC Se Ag 
Se     1  0.1396668706416  0.2839210338003  0.4290868045119 1.0
Se     1  0.4312464248464 -0.2839210338003  0.4290868045119 1.0
Se     1  0.4046252751536  0.2839210338003 -0.1008300045119 1.0
Se     1 -0.3037951706416 -0.2839210338003 -0.1008300045119 1.0
Ag     2 -0.3834008579401  0.2294023325621  0.5207551500587 1.0
Ag     2 -0.1373541921186 -0.2294023325621  0.5207551500587 1.0
Ag     2 -0.0267741078814  0.2294023325621 -0.1924983500587 1.0
Ag     2  0.2192725579401 -0.2294023325621 -0.1924983500587 1.0
Ag     2 -0.2821207273110  0.4033707557159  0.1641284000000 1.0
Ag     2  0.1179924273110 -0.4033707557159  0.1641284000000 1.0
Ag     2 -0.3309207532684  0.0005284635822  0.1641284000000 1.0
Ag     2  0.1667924532684 -0.0005284635822  0.1641284000000 1.0
END
