TITL 4Ag2Se_CONSTCUT-200811-072045-3bcc18 -0.0539 250.218682 -4.61166672E+004 0 0 12 (I41) n - 1
REM
REM Run started: Tue, 11 Aug 2020 09:46:38 +0100 in /lustre/scratch/uccabz1/launch_tmp/launcher_2020-08-11-06-20-43-964766
REM CASTEP 20.1 from code version af48c487+ pr-geom-scf-spinfix Tue Jun 2 15:39:59 2020 +0100
REM Functional PBE for solids (2008) Relativity Koelling-Harmon Dispersion off
REM Cut-off 300.0000 eV Grid scale 2.0000 Gmax 26.6208 1/A FBSC none
REM MP grid 5 3 3 Offset 0.000 0.000 0.000 No. kpts 21 Spacing 0.05
REM Total runtime: 8918.43 s
REM Overall efficiency: 95.8333 %
REM
REM 4Ag2Se_CONSTCUT.cell (097ebf1fd09fb02df10c18b5c3809341)
REM
REM compiler GCC version 4.9.2
REM options -cpp -iprefix /lustre/shared/ucl/apps/gcc/4.9.2/bin/../lib/gcc/x86_64-unknown-linux-gnu/4.9.2/ -mtune=corei7 -march=x86-64 -g -Og
REM COMMAND_LINE
REM seed -1492441589 -610222291 828071325 1478442333 1734627017 1938339775 -1251644193 -751999713 -607818025 -1396744412 -381816262 -230783521
REM
REM Se 3|2.1|7|7|9|40:41:32(qc=5)
REM Ag 3|2.2|7|7|9|40U:50:41:42(qc=5)
REM 
CELL 1.54180    4.33060    7.90365    7.90365   85.69561   74.09983   74.09983
LATT -1
SFAC Se Ag 
Se     1 -0.4848568051341  0.2082959235231 -0.2031664049595 1.0
Se     1 -0.4797272865704 -0.2082959235231  0.2031664049595 1.0
Se     1  0.0619767899065 -0.2968335950405 -0.2917040764769 1.0
Se     1  0.4734391183890  0.2968335950405  0.2917040764769 1.0
Ag     2  0.3327144539032 -0.0526238114345 -0.2649726716531 1.0
Ag     2  0.0151179708156  0.0526238114345  0.2649726716531 1.0
Ag     2 -0.1822582177499 -0.2350273283469  0.4473761885655 1.0
Ag     2  0.0300906424687  0.2350273283469 -0.4473761885655 1.0
Ag     2  0.1355472470592 -0.2567530983791  0.0242706712463 1.0
Ag     2 -0.0969351800735  0.2567530983791 -0.0242706712463 1.0
Ag     2 -0.0901820816944  0.4757293287537  0.2432469016209 1.0
Ag     2 -0.3712058513199 -0.4757293287536 -0.2432469016209 1.0
END
