TITL 4Ag2Se_CONSTCUT_NOSYM-200810-183939-25b111 -0.0113 218.785561 -4.61186041E+004 0 0 12 (P-1) n - 1
REM
REM Run started: Mon, 10 Aug 2020 23:35:16 +0100 in /lustre/scratch/uccabz1/launch_tmp/launcher_2020-08-10-17-39-37-519493
REM CASTEP 20.1 from code version af48c487+ pr-geom-scf-spinfix Tue Jun 2 15:39:59 2020 +0100
REM Functional PBE for solids (2008) Relativity Koelling-Harmon Dispersion off
REM Cut-off 300.0000 eV Grid scale 2.0000 Gmax 26.6208 1/A FBSC none
REM MP grid 6 4 3 Offset 0.000 0.000 0.000 No. kpts 36 Spacing 0.05
REM Total runtime: 21472.5 s
REM Overall efficiency: 93.375 %
REM
REM 4Ag2Se_CONSTCUT_NOSYM.cell (04f5f378ecb9f162ba8e0859c4ea5e99)
REM
REM compiler GCC version 4.9.2
REM options -cpp -iprefix /lustre/shared/ucl/apps/gcc/4.9.2/bin/../lib/gcc/x86_64-unknown-linux-gnu/4.9.2/ -mtune=corei7 -march=x86-64 -g -Og
REM COMMAND_LINE
REM seed 286080137 -375885780 1542852605 -916463743 403695320 1112476556 -151589175 477935068 -361897579 855883788 -1085659962 6029076
REM
REM Se 3|2.1|7|7|9|40:41:32(qc=5)
REM Ag 3|2.2|7|7|9|40U:50:41:42(qc=5)
REM 
CELL 1.54180    4.16315    7.47128    7.98805  113.03836   90.16701  105.43561
LATT -1
SFAC Se Ag 
Se     1 -0.0503928560378  0.2950387917962 -0.0422144190865 1.0
Se     1 -0.2058357091601 -0.2975851816713 -0.2408303561721 1.0
Se     1  0.0853987198508  0.2940410010903  0.4568392200619 1.0
Se     1 -0.3420011773678 -0.2970310478161  0.2596455854435 1.0
Ag     2  0.3716635521766 -0.0019393687439 -0.1414902606423 1.0
Ag     2  0.2033518884031 -0.3192800821403 -0.5078378573794 1.0
Ag     2  0.3730371389491 -0.0008981379573  0.3586630899718 1.0
Ag     2 -0.1348675949297  0.0007907802394 -0.3905218181159 1.0
Ag     2 -0.1215778052078 -0.0030467391954  0.1073407317242 1.0
Ag     2 -0.4873416752424  0.3191783589879 -0.2736396578104 1.0
Ag     2  0.5395104975750  0.3165326724272  0.2242084272068 1.0
Ag     2  0.2305958209909 -0.3220365470165 -0.0094475852015 1.0
END
