TITL 4Ag2Se_CONSTCUT-200811-144925-25225c 0.0169 218.723916 -4.61178103E+004 0 0 12 (P21/c) n - 1
REM
REM Run started: Tue, 11 Aug 2020 18:48:17 +0100 in /lustre/scratch/uccabz1/launch_tmp/launcher_2020-08-11-13-49-23-338501
REM CASTEP 20.1 from code version af48c487+ pr-geom-scf-spinfix Tue Jun 2 15:39:59 2020 +0100
REM Functional PBE for solids (2008) Relativity Koelling-Harmon Dispersion off
REM Cut-off 300.0000 eV Grid scale 2.0000 Gmax 26.6208 1/A FBSC none
REM MP grid 7 3 3 Offset 0.000 0.000 0.000 No. kpts 20 Spacing 0.05
REM Total runtime: 14430.2 s
REM Overall efficiency: 96.25 %
REM
REM 4Ag2Se_CONSTCUT.cell (097ebf1fd09fb02df10c18b5c3809341)
REM
REM compiler GCC version 4.9.2
REM options -cpp -iprefix /lustre/shared/ucl/apps/gcc/4.9.2/bin/../lib/gcc/x86_64-unknown-linux-gnu/4.9.2/ -mtune=corei7 -march=x86-64 -g -Og
REM COMMAND_LINE
REM seed 2019566744 1294721240 247760982 -1262099159 -1376963891 -1087198735 -1145413136 434331279 -17161665 928063346 1341006943 -817289424
REM
REM Se 3|2.1|7|7|9|40:41:32(qc=5)
REM Ag 3|2.2|7|7|9|40U:50:41:42(qc=5)
REM 
CELL 1.54180    3.16188    6.97126   10.33728  106.27751   90.00000   90.00000
LATT -1
SFAC Se Ag 
Se     1  0.0882843612155 -0.4221102020704  0.0854050613636 1.0
Se     1 -0.0882843612155  0.0778897979296 -0.4145949386364 1.0
Se     1  0.4113891489345 -0.4102923706500 -0.2645746342825 1.0
Se     1 -0.4113891489345  0.0897076293500  0.2354253657175 1.0
Ag     2  0.4039669121483 -0.0093284600351 -0.2196672353092 1.0
Ag     2 -0.4039669121483  0.4906715399649  0.2803327646908 1.0
Ag     2  0.1032569001317 -0.1560487077529  0.3371552602105 1.0
Ag     2 -0.1032569001317  0.3439512922471 -0.1628447397895 1.0
Ag     2  0.3930048376402  0.3232237067691 -0.5165535425011 1.0
Ag     2 -0.3930048376402 -0.1767762932309 -0.0165535425011 1.0
Ag     2  0.0995772644953  0.1764338337394  0.0403325905186 1.0
Ag     2 -0.0995772644953 -0.3235661662606 -0.4596674094814 1.0
END
