TITL 4Ag2Se_CONSTCUT-200811-081732-a06ba1 0.0721 223.532374 -4.61183149E+004 0 0 12 (P21) n - 1
REM
REM Run started: Tue, 11 Aug 2020 12:52:44 +0100 in /lustre/scratch/uccabz1/launch_tmp/launcher_2020-08-11-07-17-30-680667
REM CASTEP 20.1 from code version af48c487+ pr-geom-scf-spinfix Tue Jun 2 15:39:59 2020 +0100
REM Functional PBE for solids (2008) Relativity Koelling-Harmon Dispersion off
REM Cut-off 300.0000 eV Grid scale 2.0000 Gmax 26.6208 1/A FBSC none
REM MP grid 4 4 3 Offset 0.000 0.000 0.000 No. kpts 16 Spacing 0.05
REM Total runtime: 17210.5 s
REM Overall efficiency: 98.3333 %
REM
REM 4Ag2Se_CONSTCUT.cell (097ebf1fd09fb02df10c18b5c3809341)
REM
REM compiler GCC version 4.9.2
REM options -cpp -iprefix /lustre/shared/ucl/apps/gcc/4.9.2/bin/../lib/gcc/x86_64-unknown-linux-gnu/4.9.2/ -mtune=corei7 -march=x86-64 -g -Og
REM COMMAND_LINE
REM seed -1367531204 -1658662269 772319431 1583748300 -1209254809 1942019629 -254200945 68851944 354785475 2046440044 -832546209 -1351236249
REM
REM Se 3|2.1|7|7|9|40:41:32(qc=5)
REM Ag 3|2.2|7|7|9|40U:50:41:42(qc=5)
REM 
CELL 1.54180    5.08006    6.23100    7.13647   90.00000   90.00000   98.29694
LATT -1
SFAC Se Ag 
Se     1 -0.5062179356479  0.1700755319716 -0.3392566744367 1.0
Se     1  0.5062179356479 -0.1700755319716  0.1607433255633 1.0
Se     1 -0.0842513547040 -0.2756335171900 -0.4304616597311 1.0
Se     1  0.0842513547040  0.2756335171900  0.0695383402689 1.0
Ag     2 -0.3986339890197  0.4249969108536 -0.0419049056488 1.0
Ag     2  0.3986339890197 -0.4249969108536  0.4580950943512 1.0
Ag     2 -0.1626263188675 -0.0635576574604 -0.1259253992810 1.0
Ag     2  0.1626263188675  0.0635576574604  0.3740746007190 1.0
Ag     2  0.2985012815450 -0.2591545439516 -0.1744998389147 1.0
Ag     2 -0.2985012815450  0.2591545439516  0.3255001610853 1.0
Ag     2 -0.0233245077889 -0.3306598545444  0.1786629780122 1.0
Ag     2  0.0233245077889  0.3306598545444 -0.3213370219878 1.0
END
