TITL 4Ag2Se_CONSTCUT-200811-074544-e59409 -0.0111 225.705278 -4.61183092E+004 0 0 12 (C2) n - 1
REM
REM Run started: Tue, 11 Aug 2020 09:42:34 +0100 in /lustre/scratch/uccabz1/launch_tmp/launcher_2020-08-11-06-45-42-779385
REM CASTEP 20.1 from code version af48c487+ pr-geom-scf-spinfix Tue Jun 2 15:39:59 2020 +0100
REM Functional PBE for solids (2008) Relativity Koelling-Harmon Dispersion off
REM Cut-off 300.0000 eV Grid scale 2.0000 Gmax 26.6208 1/A FBSC none
REM MP grid 4 4 4 Offset 0.000 0.000 0.000 No. kpts 22 Spacing 0.05
REM Total runtime: 7080.89 s
REM Overall efficiency: 72.7143 %
REM
REM 4Ag2Se_CONSTCUT.cell (097ebf1fd09fb02df10c18b5c3809341)
REM
REM compiler GCC version 4.9.2
REM options -cpp -iprefix /lustre/shared/ucl/apps/gcc/4.9.2/bin/../lib/gcc/x86_64-unknown-linux-gnu/4.9.2/ -mtune=corei7 -march=x86-64 -g -Og
REM COMMAND_LINE
REM seed 465431499 638523666 -595083766 766052089 840055544 1877565859 1296078969 -1010985259 -1704285737 -616966941 748847297 669860041
REM
REM Se 3|2.1|7|7|9|40:41:32(qc=5)
REM Ag 3|2.2|7|7|9|40U:50:41:42(qc=5)
REM 
CELL 1.54180    6.55681    6.55681    6.85381  113.33359  116.62494   96.74938
LATT -1
SFAC Se Ag 
Se     1  0.2331658962335  0.1051153240632  0.4000007585881 1.0
Se     1 -0.2948853345249 -0.1668349623546 -0.4000007585881 1.0
Se     1 -0.0982128687109 -0.4631692083611 -0.0858747188100 1.0
Se     1 -0.3772943895512 -0.0123382499010  0.0858747188100 1.0
Ag     2 -0.6441207050609 -0.4333921533865 -0.3351764007104 1.0
Ag     2 -0.0982156526761 -0.3089444043505  0.3351764007104 1.0
Ag     2  0.0355790832481  0.2906853728069  0.1263865563690 1.0
Ag     2  0.1642989164379 -0.0908075731209 -0.1263865563690 1.0
Ag     2 -0.4807646690469  0.2568426010787 -0.1138818676514 1.0
Ag     2  0.3707245687302 -0.3668829013955  0.1138818676514 1.0
Ag     2  0.5770898665690  0.3672883280231  0.3694314896708 1.0
Ag     2 -0.0021430616477  0.2076582768982 -0.3694314896708 1.0
END
