TITL 4Ag2Se_CONSTCUT-200811-081217-14a8e7 0.0089 238.285298 -4.61172685E+004 0 0 12 (P4/mmm) n - 1
REM
REM Run started: Tue, 11 Aug 2020 09:35:17 +0100 in /lustre/scratch/uccabz1/launch_tmp/launcher_2020-08-11-07-12-15-703989
REM CASTEP 20.1 from code version af48c487+ pr-geom-scf-spinfix Tue Jun 2 15:39:59 2020 +0100
REM Functional PBE for solids (2008) Relativity Koelling-Harmon Dispersion off
REM Cut-off 300.0000 eV Grid scale 2.0000 Gmax 26.6208 1/A FBSC none
REM MP grid 6 3 3 Offset 0.000 0.000 0.000 No. kpts 9 Spacing 0.05
REM Total runtime: 5163.42 s
REM Overall efficiency: 96.8 %
REM
REM 4Ag2Se_CONSTCUT.cell (097ebf1fd09fb02df10c18b5c3809341)
REM
REM compiler GCC version 4.9.2
REM options -cpp -iprefix /lustre/shared/ucl/apps/gcc/4.9.2/bin/../lib/gcc/x86_64-unknown-linux-gnu/4.9.2/ -mtune=corei7 -march=x86-64 -g -Og
REM COMMAND_LINE
REM seed -464323015 -470972318 -1154877449 201241292 -2078280024 922567475 2122643824 -1069148166 1351972711 1212652735 1161388285 1827959085
REM
REM Se 3|2.1|7|7|9|40:41:32(qc=5)
REM Ag 3|2.2|7|7|9|40U:50:41:42(qc=5)
REM 
CELL 1.54180    3.72175    8.00157    8.00157   90.00000   90.00000   90.00000
LATT -1
SFAC Se Ag 
Se     1  0.3228950000000 -0.2496095610671  0.2503904389329 1.0
Se     1  0.3228950000000  0.2496095610671 -0.2503904389329 1.0
Se     1  0.3228950000000  0.2503904389329  0.2496095610671 1.0
Se     1  0.3228950000000 -0.2503904389329 -0.2496095610671 1.0
Ag     2 -0.1771050000000 -0.0004119270436 -0.2490350803676 1.0
Ag     2 -0.1771050000000  0.0004119270436  0.2490350803676 1.0
Ag     2 -0.1771050000000 -0.2490350803676  0.0004119270436 1.0
Ag     2 -0.1771050000000  0.2490350803676 -0.0004119270436 1.0
Ag     2 -0.1771050000000 -0.2509649196324  0.5004119270436 1.0
Ag     2 -0.1771050000000  0.2509649196324 -0.5004119270436 1.0
Ag     2 -0.1771050000000  0.5004119270436  0.2509649196324 1.0
Ag     2 -0.1771050000000 -0.5004119270436 -0.2509649196324 1.0
END
