TITL 4Ag2Se_CONSTCUT_NOSYM-200811-040121-bf333f 0.0415 213.426075 -4.61180606E+004 0 0 12 (P1) n - 1
REM
REM Run started: Tue, 11 Aug 2020 09:16:17 +0100 in /lustre/scratch/uccabz1/launch_tmp/launcher_2020-08-11-03-01-19-660077
REM CASTEP 20.1 from code version af48c487+ pr-geom-scf-spinfix Tue Jun 2 15:39:59 2020 +0100
REM Functional PBE for solids (2008) Relativity Koelling-Harmon Dispersion off
REM Cut-off 300.0000 eV Grid scale 2.0000 Gmax 26.6208 1/A FBSC none
REM MP grid 6 4 3 Offset 0.000 0.000 0.000 No. kpts 36 Spacing 0.05
REM Total runtime: 19046.8 s
REM Overall efficiency: 97.375 %
REM
REM 4Ag2Se_CONSTCUT_NOSYM.cell (04f5f378ecb9f162ba8e0859c4ea5e99)
REM
REM compiler GCC version 4.9.2
REM options -cpp -iprefix /lustre/shared/ucl/apps/gcc/4.9.2/bin/../lib/gcc/x86_64-unknown-linux-gnu/4.9.2/ -mtune=corei7 -march=x86-64 -g -Og
REM COMMAND_LINE
REM seed -1311719806 690158589 931270014 -1412087346 1798789339 1202344040 2140850615 -227501989 1730382752 666271610 1973074612 586862580
REM
REM Se 3|2.1|7|7|9|40:41:32(qc=5)
REM Ag 3|2.2|7|7|9|40U:50:41:42(qc=5)
REM 
CELL 1.54180    3.98991    6.72989    8.64364   77.45494   77.18088   72.91407
LATT -1
SFAC Se Ag 
Se     1  0.0703137639891 -0.3552338071318 -0.4530580549078 1.0
Se     1 -0.4352865538330  0.2395655698534 -0.0133485019898 1.0
Se     1 -0.3191318542243 -0.2223929304798  0.2249983042749 1.0
Se     1 -0.2143993989971  0.2492546249389  0.5049850860637 1.0
Ag     2  0.4965110517496 -0.4131185281296 -0.2404550485717 1.0
Ag     2 -0.5665584595242 -0.0430875773046  0.5058523660852 1.0
Ag     2 -0.1732152699167 -0.0810572889217 -0.2343371042419 1.0
Ag     2  0.2477756822864 -0.1462750335177  0.0029296786335 1.0
Ag     2 -0.6752984563697  0.4464540133813  0.2726369882852 1.0
Ag     2 -0.0896999155813 -0.4736164359096  0.0060053256882 1.0
Ag     2  0.1728881939826  0.2444534470247 -0.2519055267332 1.0
Ag     2  0.0159485164386  0.1157881461965  0.2334271874138 1.0
END
