TITL 4Ag2Se_CONSTCUT-200811-045406-9076b4 -0.4538 233.077664 -4.61184875E+004 0 0 12 (P21/c) n - 1
REM
REM Run started: Tue, 11 Aug 2020 12:12:45 +0100 in /lustre/scratch/uccabz1/launch_tmp/launcher_2020-08-11-03-54-04-586684
REM CASTEP 20.1 from code version af48c487+ pr-geom-scf-spinfix Tue Jun 2 15:39:59 2020 +0100
REM Functional PBE for solids (2008) Relativity Koelling-Harmon Dispersion off
REM Cut-off 300.0000 eV Grid scale 2.0000 Gmax 26.6208 1/A FBSC none
REM MP grid 5 3 4 Offset 0.000 0.000 0.000 No. kpts 18 Spacing 0.05
REM Total runtime: 29936.6 s
REM Overall efficiency: 88.1667 %
REM
REM 4Ag2Se_CONSTCUT.cell (097ebf1fd09fb02df10c18b5c3809341)
REM
REM compiler GCC version 4.9.2
REM options -cpp -iprefix /lustre/shared/ucl/apps/gcc/4.9.2/bin/../lib/gcc/x86_64-unknown-linux-gnu/4.9.2/ -mtune=corei7 -march=x86-64 -g -Og
REM COMMAND_LINE
REM seed -372185047 1954617474 119965620 -1292120897 -758557675 -1959935314 -2006480850 -82377457 1244518079 1306028098 -1231982700 1907595568
REM
REM Se 3|2.1|7|7|9|40:41:32(qc=5)
REM Ag 3|2.2|7|7|9|40U:50:41:42(qc=5)
REM 
CELL 1.54180    4.48344    7.95577    7.21617  115.10595   90.00000   90.00000
LATT -1
SFAC Se Ag 
Se     1 -0.3565604691356  0.0846170986244  0.0997376121394 1.0
Se     1  0.3565604691356 -0.4153829013756  0.0997376121394 1.0
Se     1 -0.1436911505311 -0.3253403758643 -0.4416997099627 1.0
Se     1  0.1436911505311  0.1746596241357 -0.4416997099627 1.0
Ag     2 -0.0951359879655  0.4050020504983  0.1711406816241 1.0
Ag     2  0.0951359879655 -0.0949979495017  0.1711406816241 1.0
Ag     2 -0.1448828856507 -0.4407419745454 -0.1184228137295 1.0
Ag     2  0.1448828856507  0.0592580254546 -0.1184228137295 1.0
Ag     2 -0.4080816806602  0.3531364161323  0.4807751105013 1.0
Ag     2  0.4080816806602 -0.1468635838677  0.4807751105013 1.0
Ag     2 -0.3555043784573  0.1946079851547 -0.2298686805727 1.0
Ag     2  0.3555043784573 -0.3053920148453 -0.2298686805727 1.0
END
