TITL 4Ag2Se_CONSTCUT-200811-071108-d8bee7 -0.0318 223.745843 -4.61186701E+004 0 0 12 (P21/c) n - 1
REM
REM Run started: Tue, 11 Aug 2020 12:17:52 +0100 in /lustre/scratch/uccabz1/launch_tmp/launcher_2020-08-11-06-11-06-302294
REM CASTEP 20.1 from code version af48c487+ pr-geom-scf-spinfix Tue Jun 2 15:39:59 2020 +0100
REM Functional PBE for solids (2008) Relativity Koelling-Harmon Dispersion off
REM Cut-off 300.0000 eV Grid scale 2.0000 Gmax 26.6208 1/A FBSC none
REM MP grid 4 3 5 Offset 0.000 0.000 0.000 No. kpts 20 Spacing 0.05
REM Total runtime: 18506.2 s
REM Overall efficiency: 96.6667 %
REM
REM 4Ag2Se_CONSTCUT.cell (097ebf1fd09fb02df10c18b5c3809341)
REM
REM compiler GCC version 4.9.2
REM options -cpp -iprefix /lustre/shared/ucl/apps/gcc/4.9.2/bin/../lib/gcc/x86_64-unknown-linux-gnu/4.9.2/ -mtune=corei7 -march=x86-64 -g -Og
REM COMMAND_LINE
REM seed -855966984 1491777048 -480143435 281158172 -574499659 -477716790 -57240198 -520401679 459030184 -1721617241 -1143994130 -204678617
REM
REM Se 3|2.1|7|7|9|40:41:32(qc=5)
REM Ag 3|2.2|7|7|9|40U:50:41:42(qc=5)
REM 
CELL 1.54180    6.56646    7.13890    4.80545   90.00000   96.66165   90.00000
LATT -1
SFAC Se Ag 
Se     1 -0.2846537120707  0.4823637321167 -0.4513452740893 1.0
Se     1  0.2846537120707 -0.0176362678833  0.4513452740893 1.0
Se     1  0.2856730396403 -0.4338222855313 -0.0515103390205 1.0
Se     1 -0.2856730396403  0.0661777144687  0.0515103390205 1.0
Ag     2 -0.3249292047593 -0.1278928023513  0.5348045817075 1.0
Ag     2  0.3249292047593  0.3721071976487 -0.5348045817075 1.0
Ag     2  0.3243272875637  0.1767920985435 -0.0344879720255 1.0
Ag     2 -0.3243272875637 -0.3232079014565  0.0344879720255 1.0
Ag     2 -0.0477793670594  0.3757939258981  0.0588645501778 1.0
Ag     2  0.0477793670594 -0.1242060741019 -0.0588645501778 1.0
Ag     2 -0.0478464204189  0.1729748313242 -0.4413074426495 1.0
Ag     2  0.0478464204189 -0.3270251686758  0.4413074426495 1.0
END
