TITL 4Ag2Se_CONSTCUT_NOSYM-200810-203436-3fb7a9 0.0208 220.119673 -4.61183091E+004 0 0 12 (P1) n - 1
REM
REM Run started: Tue, 11 Aug 2020 00:04:50 +0100 in /lustre/scratch/uccabz1/launch_tmp/launcher_2020-08-10-19-34-34-848117
REM CASTEP 20.1 from code version af48c487+ pr-geom-scf-spinfix Tue Jun 2 15:39:59 2020 +0100
REM Functional PBE for solids (2008) Relativity Koelling-Harmon Dispersion off
REM Cut-off 300.0000 eV Grid scale 2.0000 Gmax 26.6208 1/A FBSC none
REM MP grid 5 4 3 Offset 0.000 0.000 0.000 No. kpts 30 Spacing 0.05
REM Total runtime: 12726.7 s
REM Overall efficiency: 95.75 %
REM
REM 4Ag2Se_CONSTCUT_NOSYM.cell (04f5f378ecb9f162ba8e0859c4ea5e99)
REM
REM compiler GCC version 4.9.2
REM options -cpp -iprefix /lustre/shared/ucl/apps/gcc/4.9.2/bin/../lib/gcc/x86_64-unknown-linux-gnu/4.9.2/ -mtune=corei7 -march=x86-64 -g -Og
REM COMMAND_LINE
REM seed -1774498342 -167250015 819400808 359866408 -359499633 -17142466 859942523 781764505 1846246408 2091820331 1754380994 1487410590
REM
REM Se 3|2.1|7|7|9|40:41:32(qc=5)
REM Ag 3|2.2|7|7|9|40U:50:41:42(qc=5)
REM 
CELL 1.54180    4.70168    5.37439    8.71651   88.35145   90.69894   89.11587
LATT -1
SFAC Se Ag 
Se     1  0.3717478415068  0.5099178926792  0.1771487708599 1.0
Se     1  0.3580116050646  0.4325000910598 -0.2323308011102 1.0
Se     1 -0.1386290399597 -0.0749287896807 -0.0674686331374 1.0
Se     1 -0.1218597277263  0.0539978271932 -0.4881267379472 1.0
Ag     2  0.3753757550547 -0.1182955877241  0.3834855323362 1.0
Ag     2  0.3756350498401  0.3783704593177  0.4743443349703 1.0
Ag     2 -0.1258762014287 -0.4242475127849  0.3185004652875 1.0
Ag     2 -0.1467802383679 -0.4071458863799 -0.3517958273853 1.0
Ag     2  0.3601716969458  0.0523068008500  0.0417604774019 1.0
Ag     2 -0.1345485338522  0.4341212714059 -0.0306981995177 1.0
Ag     2  0.3705257477027 -0.0660528428076 -0.2824476805854 1.0
Ag     2 -0.1360292547800  0.0769188768715  0.2160306988274 1.0
END
