TITL 4Ag2Se_CONSTCUT_NOSYM-200810-224856-106adb -0.0035 223.273702 -4.61183369E+004 0 0 12 (P1) n - 1
REM
REM Run started: Tue, 11 Aug 2020 07:24:15 +0100 in /lustre/scratch/uccabz1/launch_tmp/launcher_2020-08-10-21-48-54-398011
REM CASTEP 20.1 from code version af48c487+ pr-geom-scf-spinfix Tue Jun 2 15:39:59 2020 +0100
REM Functional PBE for solids (2008) Relativity Koelling-Harmon Dispersion off
REM Cut-off 300.0000 eV Grid scale 2.0000 Gmax 26.6208 1/A FBSC none
REM MP grid 5 4 3 Offset 0.000 0.000 0.000 No. kpts 30 Spacing 0.05
REM Total runtime: 31073.7 s
REM Overall efficiency: 97.0909 %
REM
REM 4Ag2Se_CONSTCUT_NOSYM.cell (04f5f378ecb9f162ba8e0859c4ea5e99)
REM
REM compiler GCC version 4.9.2
REM options -cpp -iprefix /lustre/shared/ucl/apps/gcc/4.9.2/bin/../lib/gcc/x86_64-unknown-linux-gnu/4.9.2/ -mtune=corei7 -march=x86-64 -g -Og
REM COMMAND_LINE
REM seed -1075882850 -1866257957 467615963 408520548 2062771795 -85565910 -259933874 662042272 -1530547261 204164853 -1688282051 -291427782
REM
REM Se 3|2.1|7|7|9|40:41:32(qc=5)
REM Ag 3|2.2|7|7|9|40U:50:41:42(qc=5)
REM 
CELL 1.54180    4.91821    6.49643    7.41145   85.69427   75.27567  100.58484
LATT -1
SFAC Se Ag 
Se     1  0.3535521624881 -0.3214680876162 -0.2517557510464 1.0
Se     1 -0.2055085496001  0.2373251811923 -0.4101885791771 1.0
Se     1 -0.0140251659046  0.0019104515692  0.0762734090894 1.0
Se     1 -0.4395434335176 -0.5468640292399  0.2449499031631 1.0
Ag     2 -0.3170546290641  0.3550505451331 -0.0862878412681 1.0
Ag     2  0.4428760241114 -0.1628022918493  0.0768109818126 1.0
Ag     2  0.1096940463152 -0.5841919262126  0.1050221741586 1.0
Ag     2  0.2472999658288  0.2578347330631 -0.2749672257702 1.0
Ag     2 -0.0997715792834 -0.1572330592878 -0.2577811446654 1.0
Ag     2  0.2420543428022  0.0719825079992  0.3795594008335 1.0
Ag     2  0.0896599785619 -0.3800609679406  0.4356389531159 1.0
Ag     2 -0.3366887627378 -0.1503392568104  0.4138149197540 1.0
END
