TITL 4Ag2Se_CONSTCUT_NOSYM-200810-172228-e2e115 -0.0037 216.726508 -4.61183166E+004 0 0 12 (P-1) n - 1
REM
REM Run started: Tue, 11 Aug 2020 00:00:07 +0100 in /lustre/scratch/uccabz1/launch_tmp/launcher_2020-08-10-16-22-26-912487
REM CASTEP 20.1 from code version af48c487+ pr-geom-scf-spinfix Tue Jun 2 15:39:59 2020 +0100
REM Functional PBE for solids (2008) Relativity Koelling-Harmon Dispersion off
REM Cut-off 300.0000 eV Grid scale 2.0000 Gmax 26.6208 1/A FBSC none
REM MP grid 6 4 3 Offset 0.000 0.000 0.000 No. kpts 36 Spacing 0.05
REM Total runtime: 24197.3 s
REM Overall efficiency: 97.6667 %
REM
REM 4Ag2Se_CONSTCUT_NOSYM.cell (04f5f378ecb9f162ba8e0859c4ea5e99)
REM
REM compiler GCC version 4.9.2
REM options -cpp -iprefix /lustre/shared/ucl/apps/gcc/4.9.2/bin/../lib/gcc/x86_64-unknown-linux-gnu/4.9.2/ -mtune=corei7 -march=x86-64 -g -Og
REM COMMAND_LINE
REM seed -616143905 1824148259 -1591276053 -382635428 4717482 -1859771043 890866894 923378862 1133713177 2031713414 -629090404 -1810727626
REM
REM Se 3|2.1|7|7|9|40:41:32(qc=5)
REM Ag 3|2.2|7|7|9|40U:50:41:42(qc=5)
REM 
CELL 1.54180    4.05115    6.70088    8.55608   76.93121   77.14402   76.87837
LATT -1
SFAC Se Ag 
Se     1  0.1220390763312 -0.0581801825239  0.3177798149627 1.0
Se     1  0.2849258481154  0.0422453883679 -0.1740866388538 1.0
Se     1 -0.2511021481154  0.3062776116321 -0.4585545611462 1.0
Se     1 -0.0882153763312  0.4067031825239  0.0495789850373 1.0
Ag     2  0.5020929287263 -0.1113184357450 -0.4423255469700 1.0
Ag     2 -0.6363709187814  0.2987669351605  0.3105917502651 1.0
Ag     2  0.3093109913407 -0.2915406182875  0.0676826177357 1.0
Ag     2 -0.2754872913407 -0.3599363817125  0.2996761822643 1.0
Ag     2 -0.0985671970708 -0.2277555865463 -0.1809135193104 1.0
Ag     2 -0.4682692287263  0.4598414357450 -0.1903156530300 1.0
Ag     2 -0.3298053812186  0.0497560648395  0.0567670497349 1.0
Ag     2  0.1323908970708 -0.4237214134537 -0.4517276806896 1.0
END
