TITL 4Ag2Se_CONSTCUT-200811-144512-c465fe 0.0016 239.028293 -4.61179842E+004 0 0 12 (P213) n - 1
REM
REM Run started: Tue, 11 Aug 2020 16:26:47 +0100 in /lustre/scratch/uccabz1/launch_tmp/launcher_2020-08-11-13-45-10-369634
REM CASTEP 20.1 from code version af48c487+ pr-geom-scf-spinfix Tue Jun 2 15:39:59 2020 +0100
REM Functional PBE for solids (2008) Relativity Koelling-Harmon Dispersion off
REM Cut-off 300.0000 eV Grid scale 2.0000 Gmax 26.6208 1/A FBSC none
REM MP grid 4 4 4 Offset 0.000 0.000 0.000 No. kpts 12 Spacing 0.05
REM Total runtime: 6170.65 s
REM Overall efficiency: 84.2857 %
REM
REM 4Ag2Se_CONSTCUT.cell (097ebf1fd09fb02df10c18b5c3809341)
REM
REM compiler GCC version 4.9.2
REM options -cpp -iprefix /lustre/shared/ucl/apps/gcc/4.9.2/bin/../lib/gcc/x86_64-unknown-linux-gnu/4.9.2/ -mtune=corei7 -march=x86-64 -g -Og
REM COMMAND_LINE
REM seed -1278627935 1530403623 1055736175 -1651464673 61213559 1689924942 1695936125 1248868033 -1507095848 746051657 -517397431 2069065814
REM
REM Se 3|2.1|7|7|9|40:41:32(qc=5)
REM Ag 3|2.2|7|7|9|40U:50:41:42(qc=5)
REM 
CELL 1.54180    6.20608    6.20608    6.20608   90.10627   90.10627   90.10627
LATT -1
SFAC Se Ag 
Se     1  0.4379580956210 -0.0653186348224 -0.1326577131286 1.0
Se     1 -0.0653186348224 -0.1326577131286  0.4379580956210 1.0
Se     1 -0.1326577131286  0.4379580956210 -0.0653186348224 1.0
Se     1  0.3667320902986  0.3667320902986  0.3667320902986 1.0
Ag     2  0.1017961769090  0.2046302697941 -0.3036257523906 1.0
Ag     2  0.2046302697941 -0.3036257523906  0.1017961769090 1.0
Ag     2 -0.3036257523906  0.1017961769090  0.2046302697941 1.0
Ag     2 -0.0628320324633  0.4418010806370  0.3595360686294 1.0
Ag     2  0.4418010806370  0.3595360686294 -0.0628320324633 1.0
Ag     2  0.3595360686294 -0.0628320324633  0.4418010806370 1.0
Ag     2 -0.3961535395544 -0.3961535395544 -0.3961535395544 1.0
Ag     2 -0.1324738095299 -0.1324738095299 -0.1324738095299 1.0
END
