TITL 4Ag2Se_CONSTCUT_NOSYM-200811-025839-af1a4e -0.0746 223.892481 -4.61183150E+004 0 0 12 (P1) n - 1
REM
REM Run started: Tue, 11 Aug 2020 12:30:10 +0100 in /lustre/scratch/uccabz1/launch_tmp/launcher_2020-08-11-01-58-37-836273
REM CASTEP 20.1 from code version af48c487+ pr-geom-scf-spinfix Tue Jun 2 15:39:59 2020 +0100
REM Functional PBE for solids (2008) Relativity Koelling-Harmon Dispersion off
REM Cut-off 300.0000 eV Grid scale 2.0000 Gmax 26.6208 1/A FBSC none
REM MP grid 5 4 4 Offset 0.000 0.000 0.000 No. kpts 40 Spacing 0.05
REM Total runtime: 34419 s
REM Overall efficiency: 97.7273 %
REM
REM 4Ag2Se_CONSTCUT_NOSYM.cell (04f5f378ecb9f162ba8e0859c4ea5e99)
REM
REM compiler GCC version 4.9.2
REM options -cpp -iprefix /lustre/shared/ucl/apps/gcc/4.9.2/bin/../lib/gcc/x86_64-unknown-linux-gnu/4.9.2/ -mtune=corei7 -march=x86-64 -g -Og
REM COMMAND_LINE
REM seed -538043592 -1137036075 1251126529 295046636 -383508066 1590400167 1648566907 -2031815575 -1277257361 375370049 80897493 1252000464
REM
REM Se 3|2.1|7|7|9|40:41:32(qc=5)
REM Ag 3|2.2|7|7|9|40U:50:41:42(qc=5)
REM 
CELL 1.54180    5.39653    6.74419    7.50413  113.76497  112.53306   92.97410
LATT -1
SFAC Se Ag 
Se     1  0.0162909074728  0.0635570891361  0.0070170382803 1.0
Se     1 -0.3479197496188 -0.4834550030980 -0.0170048428513 1.0
Se     1  0.2708895471500 -0.1480584616274 -0.4256054307945 1.0
Se     1 -0.2033364570264  0.3681921638396  0.4649975705198 1.0
Ag     2  0.3785562924814  0.4665511392694 -0.4185936883617 1.0
Ag     2 -0.2423221177960 -0.2060457207945 -0.4386749565122 1.0
Ag     2  0.0695691326865  0.2444837653283 -0.2507178754825 1.0
Ag     2 -0.4657237729226  0.1528688428226  0.0215304302679 1.0
Ag     2 -0.1560875970220 -0.0646350085048  0.2628042835699 1.0
Ag     2  0.2450873012302 -0.2788068491624 -0.0760431960262 1.0
Ag     2  0.4091455854416  0.0277098813563  0.3655425724981 1.0
Ag     2  0.2401310279234 -0.4786423385652  0.1944654948925 1.0
END
