TITL 4Ag2Se_CONSTCUT-200811-150300-f3d03c 0.0769 210.889613 -4.61178079E+004 0 0 12 (Cmcm) n - 1
REM
REM Run started: Tue, 11 Aug 2020 17:03:06 +0100 in /lustre/scratch/uccabz1/launch_tmp/launcher_2020-08-11-14-02-58-853298
REM CASTEP 20.1 from code version af48c487+ pr-geom-scf-spinfix Tue Jun 2 15:39:59 2020 +0100
REM Functional PBE for solids (2008) Relativity Koelling-Harmon Dispersion off
REM Cut-off 300.0000 eV Grid scale 2.0000 Gmax 26.6208 1/A FBSC none
REM MP grid 4 4 3 Offset 0.000 0.000 0.000 No. kpts 8 Spacing 0.05
REM Total runtime: 7285.26 s
REM Overall efficiency: 87 %
REM
REM 4Ag2Se_CONSTCUT.cell (097ebf1fd09fb02df10c18b5c3809341)
REM
REM compiler GCC version 4.9.2
REM options -cpp -iprefix /lustre/shared/ucl/apps/gcc/4.9.2/bin/../lib/gcc/x86_64-unknown-linux-gnu/4.9.2/ -mtune=corei7 -march=x86-64 -g -Og
REM COMMAND_LINE
REM seed 377574832 1614512121 -1462424060 1376000812 -477233900 -628361062 -1611305863 -493969554 100686079 965903782 -1622433064 817488876
REM
REM Se 3|2.1|7|7|9|40:41:32(qc=5)
REM Ag 3|2.2|7|7|9|40U:50:41:42(qc=5)
REM 
CELL 1.54180    5.00433    5.01324    8.40602   90.00000   90.00000   90.00000
LATT -1
SFAC Se Ag 
Se     1 -0.2500000000000 -0.2405777480509 -0.3265737000000 1.0
Se     1  0.2500000000000  0.2405777480509 -0.3265737000000 1.0
Se     1  0.2500000000000 -0.2594222519491  0.1734263000000 1.0
Se     1 -0.2500000000000  0.2594222519491  0.1734263000000 1.0
Ag     2  0.2500000000000 -0.2656559384917  0.5059682473151 1.0
Ag     2 -0.2500000000000  0.2656559384917  0.5059682473151 1.0
Ag     2  0.2500000000000  0.2343440615083  0.3408843526849 1.0
Ag     2 -0.2500000000000 -0.2343440615083  0.3408843526849 1.0
Ag     2 -0.2500000000000  0.2656559384917 -0.1591156473151 1.0
Ag     2  0.2500000000000 -0.2656559384917 -0.1591156473151 1.0
Ag     2  0.2500000000000  0.2343440615083  0.0059682473151 1.0
Ag     2 -0.2500000000000 -0.2343440615083  0.0059682473151 1.0
END
