TITL 4Ag2Se_CONSTCUT_NOSYM-200810-233508-ba4674 -0.0087 217.001174 -4.61184098E+004 0 0 12 (P1) n - 1
REM
REM Run started: Tue, 11 Aug 2020 11:14:29 +0100 in /lustre/scratch/uccabz1/launch_tmp/launcher_2020-08-10-22-35-06-418520
REM CASTEP 20.1 from code version af48c487+ pr-geom-scf-spinfix Tue Jun 2 15:39:59 2020 +0100
REM Functional PBE for solids (2008) Relativity Koelling-Harmon Dispersion off
REM Cut-off 300.0000 eV Grid scale 2.0000 Gmax 26.6208 1/A FBSC none
REM MP grid 4 4 3 Offset 0.000 0.000 0.000 No. kpts 24 Spacing 0.05
REM Total runtime: 42071.3 s
REM Overall efficiency: 97.7692 %
REM
REM 4Ag2Se_CONSTCUT_NOSYM.cell (04f5f378ecb9f162ba8e0859c4ea5e99)
REM
REM compiler GCC version 4.9.2
REM options -cpp -iprefix /lustre/shared/ucl/apps/gcc/4.9.2/bin/../lib/gcc/x86_64-unknown-linux-gnu/4.9.2/ -mtune=corei7 -march=x86-64 -g -Og
REM COMMAND_LINE
REM seed -345974690 1723137954 210734779 -1792670544 1407186692 1411283946 1514097662 -403582207 -202385023 876713653 1748159887 -345309209
REM
REM Se 3|2.1|7|7|9|40:41:32(qc=5)
REM Ag 3|2.2|7|7|9|40U:50:41:42(qc=5)
REM 
CELL 1.54180    5.84518    5.25006    7.12971   94.21780   84.33071   88.43209
LATT -1
SFAC Se Ag 
Se     1 -0.3436720592702 -0.3640759573944 -0.5100499647593 1.0
Se     1  0.2301576765404  0.1903523470647  0.5276012346295 1.0
Se     1 -0.3189187188569  0.1940615633828  0.1159301246650 1.0
Se     1  0.2119685760180 -0.1895702208160 -0.1011198957936 1.0
Ag     2 -0.0773083051553 -0.2852816164042  0.1812650988139 1.0
Ag     2 -0.0411699609065  0.3599595448188 -0.1647557577815 1.0
Ag     2 -0.2383553130212  0.1299857364175 -0.4987762966757 1.0
Ag     2  0.4631579441799  0.3483409166132 -0.1737383517795 1.0
Ag     2  0.1304515551905 -0.3033506389979 -0.4770096486766 1.0
Ag     2  0.4302469859292 -0.3182399371029  0.1823234425704 1.0
Ag     2  0.1662713798143  0.2212667896174  0.1701004942495 1.0
Ag     2 -0.2875398604620 -0.1561416271990 -0.1686305794623 1.0
END
