TITL 4Ag2Se_CONSTCUT_NOSYM-200811-031649-f0d9dd 0.0768 221.196165 -4.61181921E+004 0 0 12 (P1) n - 1
REM
REM Run started: Tue, 11 Aug 2020 17:04:04 +0100 in /lustre/scratch/uccabz1/launch_tmp/launcher_2020-08-11-02-16-47-425273
REM CASTEP 20.1 from code version af48c487+ pr-geom-scf-spinfix Tue Jun 2 15:39:59 2020 +0100
REM Functional PBE for solids (2008) Relativity Koelling-Harmon Dispersion off
REM Cut-off 300.0000 eV Grid scale 2.0000 Gmax 26.6208 1/A FBSC none
REM MP grid 4 4 4 Offset 0.000 0.000 0.000 No. kpts 32 Spacing 0.05
REM Total runtime: 54625.8 s
REM Overall efficiency: 98.9167 %
REM
REM 4Ag2Se_CONSTCUT_NOSYM.cell (04f5f378ecb9f162ba8e0859c4ea5e99)
REM
REM compiler GCC version 4.9.2
REM options -cpp -iprefix /lustre/shared/ucl/apps/gcc/4.9.2/bin/../lib/gcc/x86_64-unknown-linux-gnu/4.9.2/ -mtune=corei7 -march=x86-64 -g -Og
REM COMMAND_LINE
REM seed -1836995264 -2081477458 -347803876 -989980493 -471717484 1470039902 283315764 -305237440 -152538059 532900475 238165163 -992575065
REM
REM Se 3|2.1|7|7|9|40:41:32(qc=5)
REM Ag 3|2.2|7|7|9|40U:50:41:42(qc=5)
REM 
CELL 1.54180    6.52635    6.85666    6.27387  105.90764  118.30741  100.37602
LATT -1
SFAC Se Ag 
Se     1 -0.1292202574958  0.1710659747717 -0.4852302580607 1.0
Se     1 -0.2398292909921 -0.3294487287304  0.1049966992016 1.0
Se     1  0.2010854399789  0.1322087304677  0.1548030486885 1.0
Se     1  0.4432286118860 -0.2525223034568  0.4690447635084 1.0
Ag     2  0.1911657203692 -0.0356929506942  0.5966017119647 1.0
Ag     2  0.5538827342904  0.3301798702057 -0.3373651210866 1.0
Ag     2  0.1019458984812 -0.5470312854985 -0.0090834420363 1.0
Ag     2 -0.5809518680563 -0.1474360840575  0.0615132839664 1.0
Ag     2 -0.1089899447429 -0.2769264866340 -0.2551013226133 1.0
Ag     2 -0.2754776220329  0.0802332367557 -0.0520366395188 1.0
Ag     2  0.1586732784782 -0.4977023823490 -0.4483626570103 1.0
Ag     2 -0.3953794001639  0.3793140092196  0.2222517329963 1.0
END
