TITL 4Ag2Se_CONSTCUT_NOSYM-200811-001115-6434ac -0.0314 213.116955 -4.61177498E+004 0 0 12 (P-1) n - 1
REM
REM Run started: Tue, 11 Aug 2020 04:18:29 +0100 in /lustre/scratch/uccabz1/launch_tmp/launcher_2020-08-10-23-11-13-295630
REM CASTEP 20.1 from code version af48c487+ pr-geom-scf-spinfix Tue Jun 2 15:39:59 2020 +0100
REM Functional PBE for solids (2008) Relativity Koelling-Harmon Dispersion off
REM Cut-off 300.0000 eV Grid scale 2.0000 Gmax 26.6208 1/A FBSC none
REM MP grid 5 4 4 Offset 0.000 0.000 0.000 No. kpts 40 Spacing 0.05
REM Total runtime: 15165.5 s
REM Overall efficiency: 97.7143 %
REM
REM 4Ag2Se_CONSTCUT_NOSYM.cell (04f5f378ecb9f162ba8e0859c4ea5e99)
REM
REM compiler GCC version 4.9.2
REM options -cpp -iprefix /lustre/shared/ucl/apps/gcc/4.9.2/bin/../lib/gcc/x86_64-unknown-linux-gnu/4.9.2/ -mtune=corei7 -march=x86-64 -g -Og
REM COMMAND_LINE
REM seed 83282170 -1264789426 -2097051307 560726335 1047424180 1547701562 1986293895 1127664574 -761351887 2005528683 -1356850784 618861790
REM
REM Se 3|2.1|7|7|9|40:41:32(qc=5)
REM Ag 3|2.2|7|7|9|40U:50:41:42(qc=5)
REM 
CELL 1.54180    5.42428    6.99720    6.99500  111.42023  120.16871   76.00646
LATT -1
SFAC Se Ag 
Se     1 -0.0021394758838  0.1918689979623 -0.0596412048981 1.0
Se     1  0.4978605241162  0.1918689979623  0.4403587951019 1.0
Se     1 -0.5649083241162 -0.2253378979623 -0.2938598951019 1.0
Se     1 -0.0649083241162 -0.2253378979623  0.2061401048981 1.0
Ag     2  0.4270216863916 -0.4819349050444  0.2696106072914 1.0
Ag     2 -0.3712761478706  0.1241066337838  0.0678761331730 1.0
Ag     2 -0.8712761478706  0.1241066337838 -0.4321238668270 1.0
Ag     2 -0.4940694863916  0.4484660050444 -0.1231117072914 1.0
Ag     2 -0.1957716521294 -0.1575755337838 -0.4213772331730 1.0
Ag     2 -0.0729783136084 -0.4819349050444 -0.2303893927086 1.0
Ag     2  0.3042283478706 -0.1575755337838  0.0786227668270 1.0
Ag     2  0.0059305136084  0.4484660050444  0.3768882927086 1.0
END
