TITL 4Ag2Se_CONSTCUT-200811-075622-6a9411 0.0530 211.706233 -4.61178901E+004 0 0 12 (I4/mmm) n - 1
REM
REM Run started: Tue, 11 Aug 2020 09:59:44 +0100 in /lustre/scratch/uccabz1/launch_tmp/launcher_2020-08-11-06-56-21-099788
REM CASTEP 20.1 from code version af48c487+ pr-geom-scf-spinfix Tue Jun 2 15:39:59 2020 +0100
REM Functional PBE for solids (2008) Relativity Koelling-Harmon Dispersion off
REM Cut-off 300.0000 eV Grid scale 2.0000 Gmax 26.6208 1/A FBSC none
REM MP grid 6 4 3 Offset 0.000 0.000 0.000 No. kpts 18 Spacing 0.05
REM Total runtime: 7509.96 s
REM Overall efficiency: 87 %
REM
REM 4Ag2Se_CONSTCUT.cell (097ebf1fd09fb02df10c18b5c3809341)
REM
REM compiler GCC version 4.9.2
REM options -cpp -iprefix /lustre/shared/ucl/apps/gcc/4.9.2/bin/../lib/gcc/x86_64-unknown-linux-gnu/4.9.2/ -mtune=corei7 -march=x86-64 -g -Og
REM COMMAND_LINE
REM seed -395678324 864134658 -605359417 1174257692 1055714960 -904527216 1048574013 -698106754 1018041529 1513965422 -1270179438 448662670
REM
REM Se 3|2.1|7|7|9|40:41:32(qc=5)
REM Ag 3|2.2|7|7|9|40U:50:41:42(qc=5)
REM 
CELL 1.54180    3.57946    7.13369    9.03200  113.37219   90.00000   90.00000
LATT -1
SFAC Se Ag 
Se     1  0.3818113267163  0.2499176889247  0.4993483277575 1.0
Se     1  0.3818113267163 -0.2499176889247 -0.4993483277575 1.0
Se     1 -0.1199191254139  0.2500568489542  0.0001995838867 1.0
Se     1 -0.1199191254139 -0.2500568489542 -0.0001995838867 1.0
Ag     2  0.3797748516951 -0.4182572910096  0.1686884450651 1.0
Ag     2  0.3797748516951  0.4182572910096 -0.1686884450651 1.0
Ag     2  0.3817038322587  0.0801163481487  0.1680141470153 1.0
Ag     2  0.3817038322587 -0.0801163481487 -0.1680141470153 1.0
Ag     2 -0.1180897177304  0.4144257194822  0.3314621691530 1.0
Ag     2 -0.1180897177304 -0.4144257194822 -0.3314621691530 1.0
Ag     2 -0.1190979675258  0.0864143699527 -0.3317899144437 1.0
Ag     2 -0.1190979675258 -0.0864143699527  0.3317899144437 1.0
END
