TITL 4Ag2Se_CONSTCUT-200811-053912-6a8125 -0.0048 220.454271 -4.61182548E+004 0 0 12 (P-1) n - 1
REM
REM Run started: Tue, 11 Aug 2020 09:37:01 +0100 in /lustre/scratch/uccabz1/launch_tmp/launcher_2020-08-11-04-39-10-391179
REM CASTEP 20.1 from code version af48c487+ pr-geom-scf-spinfix Tue Jun 2 15:39:59 2020 +0100
REM Functional PBE for solids (2008) Relativity Koelling-Harmon Dispersion off
REM Cut-off 300.0000 eV Grid scale 2.0000 Gmax 26.6208 1/A FBSC none
REM MP grid 5 4 3 Offset 0.000 0.000 0.000 No. kpts 30 Spacing 0.05
REM Total runtime: 14408.5 s
REM Overall efficiency: 90.7143 %
REM
REM 4Ag2Se_CONSTCUT.cell (097ebf1fd09fb02df10c18b5c3809341)
REM
REM compiler GCC version 4.9.2
REM options -cpp -iprefix /lustre/shared/ucl/apps/gcc/4.9.2/bin/../lib/gcc/x86_64-unknown-linux-gnu/4.9.2/ -mtune=corei7 -march=x86-64 -g -Og
REM COMMAND_LINE
REM seed -884549496 681841430 -364386748 362733740 -1653428384 -1294882825 -2015458346 1890565619 387880705 -1904109373 -491619809 -1312675259
REM
REM Se 3|2.1|7|7|9|40:41:32(qc=5)
REM Ag 3|2.2|7|7|9|40U:50:41:42(qc=5)
REM 
CELL 1.54180    4.67071    6.36012    8.79326   62.31935   72.42940   80.68104
LATT -1
SFAC Se Ag 
Se     1 -0.2763647428213  0.6742757037477 -0.3065150947441 1.0
Se     1  0.2763647428213 -0.6742757037477  0.3065150947441 1.0
Se     1  0.2398146586837  0.1971453491176 -0.2162985406679 1.0
Se     1 -0.2398146586837 -0.1971453491176  0.2162985406679 1.0
Ag     2  0.2441146501675 -0.3575001450710  0.4466598980242 1.0
Ag     2 -0.2441146501675  0.3575001450710 -0.4466598980242 1.0
Ag     2 -0.2199028533522  0.3620847442723  0.0128509278831 1.0
Ag     2  0.2199028533522 -0.3620847442723 -0.0128509278831 1.0
Ag     2  0.2811135523579  0.0797021800709  0.1099159016085 1.0
Ag     2 -0.2811135523579 -0.0797021800709 -0.1099159016085 1.0
Ag     2 -0.2112484593663  0.0778875351531  0.3782574678930 1.0
Ag     2  0.2112484593663 -0.0778875351531 -0.3782574678930 1.0
END
