TITL 4Ag2Se_CONSTCUT-200811-082141-a8a8ad -0.0584 212.262884 -4.61184957E+004 0 0 12 (Pnma) n - 1
REM
REM Run started: Tue, 11 Aug 2020 12:59:52 +0100 in /lustre/scratch/uccabz1/launch_tmp/launcher_2020-08-11-07-21-39-048263
REM CASTEP 20.1 from code version af48c487+ pr-geom-scf-spinfix Tue Jun 2 15:39:59 2020 +0100
REM Functional PBE for solids (2008) Relativity Koelling-Harmon Dispersion off
REM Cut-off 300.0000 eV Grid scale 2.0000 Gmax 26.6208 1/A FBSC none
REM MP grid 4 6 3 Offset 0.000 0.000 0.000 No. kpts 18 Spacing 0.05
REM Total runtime: 16787.1 s
REM Overall efficiency: 91.3333 %
REM
REM 4Ag2Se_CONSTCUT.cell (097ebf1fd09fb02df10c18b5c3809341)
REM
REM compiler GCC version 4.9.2
REM options -cpp -iprefix /lustre/shared/ucl/apps/gcc/4.9.2/bin/../lib/gcc/x86_64-unknown-linux-gnu/4.9.2/ -mtune=corei7 -march=x86-64 -g -Og
REM COMMAND_LINE
REM seed 288993192 -1790203008 844969152 651044475 15111447 -1771810727 4641696 1874332211 1134657333 2131739110 -531149918 -1732359318
REM
REM Se 3|2.1|7|7|9|40:41:32(qc=5)
REM Ag 3|2.2|7|7|9|40U:50:41:42(qc=5)
REM 
CELL 1.54180    6.10333    4.10070    9.42542  115.86761   90.00000   90.00000
LATT -1
SFAC Se Ag 
Se     1 -0.0708990672360  0.1842402593498  0.5511270757780 1.0
Se     1  0.0709493444126  0.1842402593498  0.0511270757780 1.0
Se     1 -0.4290506555874 -0.5226904399347  0.3422091908546 1.0
Se     1  0.4291009327640 -0.5226904399347 -0.1577908091454 1.0
Ag     2 -0.3863991381383  0.1556714580742  0.0205102469425 1.0
Ag     2  0.3864494153149  0.1556714580742 -0.4794897530575 1.0
Ag     2 -0.3521459646916 -0.1858100705586 -0.3200565785898 1.0
Ag     2  0.3521962418682 -0.1858100705586  0.1799434214102 1.0
Ag     2 -0.1135505846850  0.5058783613409 -0.1271739803100 1.0
Ag     2  0.1136008618617  0.5058783613409  0.3728260196900 1.0
Ag     2 -0.1478037581318 -0.1526401100263  0.2133928452224 1.0
Ag     2  0.1478540353084 -0.1526401100263 -0.2866071547776 1.0
END
