TITL 4Ag2Se_CONSTCUT-200811-041650-417cad 0.0289 210.810518 -4.61178067E+004 0 0 12 (Cmcm) n - 1
REM
REM Run started: Tue, 11 Aug 2020 07:32:27 +0100 in /lustre/scratch/uccabz1/launch_tmp/launcher_2020-08-11-03-16-49-153308
REM CASTEP 20.1 from code version af48c487+ pr-geom-scf-spinfix Tue Jun 2 15:39:59 2020 +0100
REM Functional PBE for solids (2008) Relativity Koelling-Harmon Dispersion off
REM Cut-off 300.0000 eV Grid scale 2.0000 Gmax 26.6208 1/A FBSC none
REM MP grid 4 4 3 Offset 0.000 0.000 0.000 No. kpts 16 Spacing 0.05
REM Total runtime: 11662.3 s
REM Overall efficiency: 96.1429 %
REM
REM 4Ag2Se_CONSTCUT.cell (097ebf1fd09fb02df10c18b5c3809341)
REM
REM compiler GCC version 4.9.2
REM options -cpp -iprefix /lustre/shared/ucl/apps/gcc/4.9.2/bin/../lib/gcc/x86_64-unknown-linux-gnu/4.9.2/ -mtune=corei7 -march=x86-64 -g -Og
REM COMMAND_LINE
REM seed 920816993 -932252462 620870685 516458349 -1732340179 1352869160 1214357282 329640424 2056722278 -12510420 -1855342414 2115489140
REM
REM Se 3|2.1|7|7|9|40:41:32(qc=5)
REM Ag 3|2.2|7|7|9|40U:50:41:42(qc=5)
REM 
CELL 1.54180    5.00094    5.00917    8.41541   90.00000   90.00000   90.03013
LATT -1
SFAC Se Ag 
Se     1  0.2495292634003  0.2568155823509  0.1288526173977 1.0
Se     1 -0.2495292634003 -0.2568155823509  0.1288526173977 1.0
Se     1 -0.2503363586459  0.2405110108576 -0.3707254792775 1.0
Se     1  0.2503363586459 -0.2405110108576 -0.3707254792775 1.0
Ag     2  0.2484010692904  0.2631582114923 -0.2036419734550 1.0
Ag     2 -0.2484010692904 -0.2631582114923 -0.2036419734550 1.0
Ag     2 -0.2502179885691 -0.2662901506545  0.4617153891957 1.0
Ag     2  0.2502179885691  0.2662901506545  0.4617153891957 1.0
Ag     2 -0.2498931412852  0.2348694068499  0.2966122849705 1.0
Ag     2  0.2498931412852 -0.2348694068499  0.2966122849705 1.0
Ag     2 -0.2516330788451  0.2384528533020 -0.0385963388314 1.0
Ag     2  0.2516330788451 -0.2384528533020 -0.0385963388314 1.0
END
