TITL 4Ag2Se_CONSTCUT-200811-083610-abbb7b -0.0357 224.311752 -4.61184537E+004 0 0 12 (Cc) n - 1
REM
REM Run started: Tue, 11 Aug 2020 13:48:24 +0100 in /lustre/scratch/uccabz1/launch_tmp/launcher_2020-08-11-07-36-08-613305
REM CASTEP 20.1 from code version af48c487+ pr-geom-scf-spinfix Tue Jun 2 15:39:59 2020 +0100
REM Functional PBE for solids (2008) Relativity Koelling-Harmon Dispersion off
REM Cut-off 300.0000 eV Grid scale 2.0000 Gmax 26.6208 1/A FBSC none
REM MP grid 4 4 5 Offset 0.000 0.000 0.000 No. kpts 26 Spacing 0.05
REM Total runtime: 18799.9 s
REM Overall efficiency: 85.1 %
REM
REM 4Ag2Se_CONSTCUT.cell (097ebf1fd09fb02df10c18b5c3809341)
REM
REM compiler GCC version 4.9.2
REM options -cpp -iprefix /lustre/shared/ucl/apps/gcc/4.9.2/bin/../lib/gcc/x86_64-unknown-linux-gnu/4.9.2/ -mtune=corei7 -march=x86-64 -g -Og
REM COMMAND_LINE
REM seed 787406162 1653965155 -1559648677 -639928840 883980342 1952704588 -225234841 445042565 226041744 462921398 1878894867 -411442034
REM
REM Se 3|2.1|7|7|9|40:41:32(qc=5)
REM Ag 3|2.2|7|7|9|40U:50:41:42(qc=5)
REM 
CELL 1.54180    6.95375    6.95375    6.56331   60.83687   60.83687   92.79433
LATT -1
SFAC Se Ag 
Se     1  0.4730585708307  0.1698245480682  0.1027498465848 1.0
Se     1 -0.3301754519318 -0.0269414291693 -0.3972501534152 1.0
Se     1 -0.0826611249927 -0.4030686277313  0.2204395492653 1.0
Se     1  0.0969313722687  0.4173388750073 -0.2795604507347 1.0
Ag     2 -0.2578399272365 -0.4089463490505 -0.0874751601225 1.0
Ag     2  0.0910536509495  0.2421600727635  0.4125248398775 1.0
Ag     2  0.3440600262906 -0.2869438070900  0.1598263826952 1.0
Ag     2  0.2130561929100 -0.1559399737094 -0.3401736173048 1.0
Ag     2  0.4468797284673  0.2726868728561  0.5214463461602 1.0
Ag     2 -0.2273131271439 -0.0531202715327  0.0214463461602 1.0
Ag     2  0.0861889732004  0.0174420163877  0.1456424354171 1.0
Ag     2 -0.4825579836123 -0.4138110267996 -0.3543575645829 1.0
END
