TITL 4Ag2Se_CONSTCUT-200811-062234-44e1af 0.0080 230.760748 -4.61166798E+004 0 0 12 (Pbam) n - 1
REM
REM Run started: Tue, 11 Aug 2020 08:26:58 +0100 in /lustre/scratch/uccabz1/launch_tmp/launcher_2020-08-11-05-22-33-066613
REM CASTEP 20.1 from code version af48c487+ pr-geom-scf-spinfix Tue Jun 2 15:39:59 2020 +0100
REM Functional PBE for solids (2008) Relativity Koelling-Harmon Dispersion off
REM Cut-off 300.0000 eV Grid scale 2.0000 Gmax 26.6208 1/A FBSC none
REM MP grid 6 4 2 Offset 0.000 0.000 0.000 No. kpts 6 Spacing 0.05
REM Total runtime: 7499.91 s
REM Overall efficiency: 82.9 %
REM
REM 4Ag2Se_CONSTCUT.cell (097ebf1fd09fb02df10c18b5c3809341)
REM
REM compiler GCC version 4.9.2
REM options -cpp -iprefix /lustre/shared/ucl/apps/gcc/4.9.2/bin/../lib/gcc/x86_64-unknown-linux-gnu/4.9.2/ -mtune=corei7 -march=x86-64 -g -Og
REM COMMAND_LINE
REM seed -1268853935 -772771629 239899505 346521442 -771499789 321691032 1814429483 -1242308639 -1994877762 -1473795275 -1840921844 -523482554
REM
REM Se 3|2.1|7|7|9|40:41:32(qc=5)
REM Ag 3|2.2|7|7|9|40U:50:41:42(qc=5)
REM 
CELL 1.54180    3.75649    5.47952   11.21082   90.00000   90.00000   90.00000
LATT -1
SFAC Se Ag 
Se     1  0.1314130000000  0.1214062441376 -0.3653809425288 1.0
Se     1  0.1314130000000 -0.1214062441376  0.3653809425288 1.0
Se     1  0.1314130000000 -0.3785937558624 -0.1346190574712 1.0
Se     1  0.1314130000000  0.3785937558624  0.1346190574712 1.0
Ag     2 -0.3685870000000  0.2572152029385  0.4660957374087 1.0
Ag     2 -0.3685870000000 -0.2572152029385 -0.4660957374087 1.0
Ag     2 -0.3685870000000 -0.2427847970615  0.0339042625913 1.0
Ag     2 -0.3685870000000  0.2427847970615 -0.0339042625913 1.0
Ag     2 -0.3685870000000 -0.4149101710231  0.2760087586387 1.0
Ag     2 -0.3685870000000  0.4149101710231 -0.2760087586387 1.0
Ag     2 -0.3685870000000  0.0850898289769  0.2239912413613 1.0
Ag     2 -0.3685870000000 -0.0850898289769 -0.2239912413613 1.0
END
