TITL 4Ag2Se_CONSTCUT_NOSYM-200811-025923-24d0a2 -0.0153 223.759502 -4.61185370E+004 0 0 12 (P1) n - 1
REM
REM Run started: Tue, 11 Aug 2020 10:26:42 +0100 in /lustre/scratch/uccabz1/launch_tmp/launcher_2020-08-11-01-59-21-535945
REM CASTEP 20.1 from code version af48c487+ pr-geom-scf-spinfix Tue Jun 2 15:39:59 2020 +0100
REM Functional PBE for solids (2008) Relativity Koelling-Harmon Dispersion off
REM Cut-off 300.0000 eV Grid scale 2.0000 Gmax 26.6208 1/A FBSC none
REM MP grid 5 4 3 Offset 0.000 0.000 0.000 No. kpts 30 Spacing 0.05
REM Total runtime: 29122.5 s
REM Overall efficiency: 85.3636 %
REM
REM 4Ag2Se_CONSTCUT_NOSYM.cell (04f5f378ecb9f162ba8e0859c4ea5e99)
REM
REM compiler GCC version 4.9.2
REM options -cpp -iprefix /lustre/shared/ucl/apps/gcc/4.9.2/bin/../lib/gcc/x86_64-unknown-linux-gnu/4.9.2/ -mtune=corei7 -march=x86-64 -g -Og
REM COMMAND_LINE
REM seed 1454382520 1238611202 -1981186776 1791998499 660598351 -765558856 1953484723 -1839168402 24546408 2080893694 447012125 1363022364
REM
REM Se 3|2.1|7|7|9|40:41:32(qc=5)
REM Ag 3|2.2|7|7|9|40U:50:41:42(qc=5)
REM 
CELL 1.54180    4.54681    6.72051    7.49601   80.73136   84.49329   83.14707
LATT -1
SFAC Se Ag 
Se     1 -0.2807115385289  0.4873547010473 -0.0037570236888 1.0
Se     1  0.0902762836031 -0.0815253576196 -0.0755436632227 1.0
Se     1  0.3770714670191  0.0269970099568  0.4026318012865 1.0
Se     1 -0.0500909120655 -0.4043125572332 -0.5004973984599 1.0
Ag     2 -0.5432413609396  0.1752244919189 -0.0407595508698 1.0
Ag     2  0.5310318752401  0.3626900178684  0.4892580486562 1.0
Ag     2 -0.3503990373880 -0.2071288858415  0.1857557746594 1.0
Ag     2  0.2880315799109 -0.4156716753981 -0.2301448389817 1.0
Ag     2  0.2090254506745 -0.4841842857370  0.1877398146732 1.0
Ag     2  0.0078446819318  0.2412611476134 -0.3029036716054 1.0
Ag     2 -0.3249954429856 -0.0929962514464 -0.3056054646145 1.0
Ag     2 -0.1021422464719  0.1547745448710  0.2335367721675 1.0
END
