TITL 4Ag2Se_CONSTCUT-200811-053644-8b07fb 0.0053 211.726556 -4.61178628E+004 0 0 12 (I4/mmm) n - 1
REM
REM Run started: Tue, 11 Aug 2020 06:33:09 +0100 in /lustre/scratch/uccabz1/launch_tmp/launcher_2020-08-11-04-36-41-933057
REM CASTEP 20.1 from code version af48c487+ pr-geom-scf-spinfix Tue Jun 2 15:39:59 2020 +0100
REM Functional PBE for solids (2008) Relativity Koelling-Harmon Dispersion off
REM Cut-off 300.0000 eV Grid scale 2.0000 Gmax 26.6208 1/A FBSC none
REM MP grid 5 4 4 Offset 0.000 0.000 0.000 No. kpts 26 Spacing 0.05
REM Total runtime: 3447.22 s
REM Overall efficiency: 71.1667 %
REM
REM 4Ag2Se_CONSTCUT.cell (097ebf1fd09fb02df10c18b5c3809341)
REM
REM compiler GCC version 4.9.2
REM options -cpp -iprefix /lustre/shared/ucl/apps/gcc/4.9.2/bin/../lib/gcc/x86_64-unknown-linux-gnu/4.9.2/ -mtune=corei7 -march=x86-64 -g -Og
REM COMMAND_LINE
REM seed 1783382367 1373676861 501216351 15008804 -687629594 -475213836 1979970055 -995885199 772082885 751500624 -1046772206 -663533962
REM
REM Se 3|2.1|7|7|9|40:41:32(qc=5)
REM Ag 3|2.2|7|7|9|40U:50:41:42(qc=5)
REM 
CELL 1.54180    5.05146    7.00805    7.00805   92.09307  111.16870  111.16870
LATT -1
SFAC Se Ag 
Se     1  0.2505069338527 -0.3741559670475 -0.1258894365394 1.0
Se     1  0.2494930661473  0.1258894365394  0.3741559670475 1.0
Se     1 -0.2505069338527  0.3741559670475  0.1258894365394 1.0
Se     1 -0.2494930661473 -0.1258894365394 -0.3741559670475 1.0
Ag     2  0.4178016287868 -0.4557346921923  0.2923002426917 1.0
Ag     2  0.0821983712132 -0.2923002426917  0.4557346921923 1.0
Ag     2 -0.4178016287868  0.4557346921923 -0.2923002426917 1.0
Ag     2 -0.0821983712132  0.2923002426917 -0.4557346921923 1.0
Ag     2  0.4168103482488  0.0415649822679 -0.2077243410577 1.0
Ag     2  0.0831896517512  0.2077243410577 -0.0415649822679 1.0
Ag     2 -0.4168103482488 -0.0415649822679  0.2077243410577 1.0
Ag     2 -0.0831896517512 -0.2077243410577  0.0415649822679 1.0
END
