TITL 4Ag2Se_CONSTCUT-200811-145549-2c6521 -0.0683 212.419029 -4.61184451E+004 0 0 12 (Pnma) n - 1
REM
REM Run started: Tue, 11 Aug 2020 16:15:31 +0100 in /lustre/scratch/uccabz1/launch_tmp/launcher_2020-08-11-13-55-46-846876
REM CASTEP 20.1 from code version af48c487+ pr-geom-scf-spinfix Tue Jun 2 15:39:59 2020 +0100
REM Functional PBE for solids (2008) Relativity Koelling-Harmon Dispersion off
REM Cut-off 300.0000 eV Grid scale 2.0000 Gmax 26.6208 1/A FBSC none
REM MP grid 5 3 4 Offset 0.000 0.000 0.000 No. kpts 12 Spacing 0.05
REM Total runtime: 5371.08 s
REM Overall efficiency: 85.8571 %
REM
REM 4Ag2Se_CONSTCUT.cell (097ebf1fd09fb02df10c18b5c3809341)
REM
REM compiler GCC version 4.9.2
REM options -cpp -iprefix /lustre/shared/ucl/apps/gcc/4.9.2/bin/../lib/gcc/x86_64-unknown-linux-gnu/4.9.2/ -mtune=corei7 -march=x86-64 -g -Og
REM COMMAND_LINE
REM seed 1088785046 -1565363607 -1258928725 1562979204 1700050182 -430425142 363546164 -967621888 248956432 33110707 2130845741 -967773385
REM
REM Se 3|2.1|7|7|9|40:41:32(qc=5)
REM Ag 3|2.2|7|7|9|40U:50:41:42(qc=5)
REM 
CELL 1.54180    4.10349    8.48950    6.09759   90.00000   90.00000   90.00000
LATT -1
SFAC Se Ag 
Se     1 -0.4979694000000 -0.3955301385180  0.1775997523715 1.0
Se     1  0.0020306000000  0.3955301385180 -0.1775997523715 1.0
Se     1 -0.4979694000000 -0.1044698614820 -0.3224002476285 1.0
Se     1  0.0020306000000  0.1044698614820  0.3224002476285 1.0
Ag     2  0.0020306000000  0.0735694432354 -0.1334006315352 1.0
Ag     2 -0.4979694000000 -0.0735694432354  0.1334006315352 1.0
Ag     2  0.0020306000000  0.4264305567646  0.3665993684648 1.0
Ag     2 -0.4979694000000 -0.4264305567646 -0.3665993684648 1.0
Ag     2 -0.4979694000000  0.2670562676127  0.1047497221835 1.0
Ag     2  0.0020306000000 -0.2670562676127 -0.1047497221835 1.0
Ag     2 -0.4979694000000  0.2329437323873 -0.3952502778165 1.0
Ag     2  0.0020306000000 -0.2329437323873  0.3952502778165 1.0
END
