TITL 4Ag2Se_CONSTCUT_NOSYM-200810-210249-c3fd42 0.0189 230.288214 -4.61182323E+004 0 0 12 (P1) n - 1
REM
REM Run started: Tue, 11 Aug 2020 04:53:33 +0100 in /lustre/scratch/uccabz1/launch_tmp/launcher_2020-08-10-20-02-47-077296
REM CASTEP 20.1 from code version af48c487+ pr-geom-scf-spinfix Tue Jun 2 15:39:59 2020 +0100
REM Functional PBE for solids (2008) Relativity Koelling-Harmon Dispersion off
REM Cut-off 300.0000 eV Grid scale 2.0000 Gmax 26.6208 1/A FBSC none
REM MP grid 5 4 3 Offset 0.000 0.000 0.000 No. kpts 30 Spacing 0.05
REM Total runtime: 28373.2 s
REM Overall efficiency: 93 %
REM
REM 4Ag2Se_CONSTCUT_NOSYM.cell (04f5f378ecb9f162ba8e0859c4ea5e99)
REM
REM compiler GCC version 4.9.2
REM options -cpp -iprefix /lustre/shared/ucl/apps/gcc/4.9.2/bin/../lib/gcc/x86_64-unknown-linux-gnu/4.9.2/ -mtune=corei7 -march=x86-64 -g -Og
REM COMMAND_LINE
REM seed 490413494 1948351203 45349517 -602886234 -1845937840 -855503741 -919365165 1134219262 581502112 -575878527 2199213 -153773354
REM
REM Se 3|2.1|7|7|9|40:41:32(qc=5)
REM Ag 3|2.2|7|7|9|40U:50:41:42(qc=5)
REM 
CELL 1.54180    4.19027    6.76896    8.34215   78.65421   91.17355   83.52149
LATT -1
SFAC Se Ag 
Se     1 -0.3481977789372  0.4110276328728 -0.0327233531771 1.0
Se     1 -0.3973899533730  0.0499096912545  0.3627417304398 1.0
Se     1  0.4043424693851 -0.4949505073163 -0.4849208865017 1.0
Se     1 -0.1689836709558 -0.0136142276847 -0.2275324422158 1.0
Ag     2 -0.0790691249445 -0.4324016293026 -0.2938884127380 1.0
Ag     2 -0.3572066579855 -0.0052011549212  0.0599972000694 1.0
Ag     2 -0.0146430017887  0.2559685975820  0.5070102882157 1.0
Ag     2 -0.3214067330581 -0.4259861306445  0.2261265691847 1.0
Ag     2  0.1310412009906 -0.1776124972327  0.2982165021464 1.0
Ag     2  0.1775586722993 -0.2926642596691 -0.0165541353017 1.0
Ag     2  0.1544739890585  0.2733933197486  0.1641213649225 1.0
Ag     2  0.3507178893092 -0.1458680346871 -0.3646617250443 1.0
END
