TITL 4Ag2Se_CONSTCUT-200811-055917-659ad0 0.0213 217.361045 -4.61185273E+004 0 0 12 (C2/c) n - 1
REM
REM Run started: Tue, 11 Aug 2020 20:29:20 +0100 in /lustre/scratch/uccabz1/launch_tmp/launcher_2020-08-11-04-59-15-296885
REM CASTEP 20.1 from code version af48c487+ pr-geom-scf-spinfix Tue Jun 2 15:39:59 2020 +0100
REM Functional PBE for solids (2008) Relativity Koelling-Harmon Dispersion off
REM Cut-off 300.0000 eV Grid scale 2.0000 Gmax 26.6208 1/A FBSC none
REM MP grid 6 7 2 Offset 0.000 0.000 0.000 No. kpts 42 Spacing 0.05
REM Total runtime: 59420.7 s
REM Overall efficiency: 98.3333 %
REM
REM 4Ag2Se_CONSTCUT.cell (097ebf1fd09fb02df10c18b5c3809341)
REM
REM compiler GCC version 4.9.2
REM options -cpp -iprefix /lustre/shared/ucl/apps/gcc/4.9.2/bin/../lib/gcc/x86_64-unknown-linux-gnu/4.9.2/ -mtune=corei7 -march=x86-64 -g -Og
REM COMMAND_LINE
REM seed 71788185 -12257503 1619754110 638332376 -1462503738 1499718231 1735887962 1534234871 -675172257 -1797323736 -318247973 609261110
REM
REM Se 3|2.1|7|7|9|40:41:32(qc=5)
REM Ag 3|2.2|7|7|9|40U:50:41:42(qc=5)
REM 
CELL 1.54180    5.80951    4.08020   15.07846  110.85629  120.00630   44.60907
LATT -1
SFAC Se Ag 
Se     1 -0.2512508194615 -0.1249487343018 -0.1032879078120 1.0
Se     1  0.3761995537633 -0.1249487343018  0.1032879078120 1.0
Se     1  0.2314562098209 -0.0877202258900  0.3955290360691 1.0
Se     1 -0.1437359839308 -0.0877202258900 -0.3955290360691 1.0
Ag     2  0.0498719107420 -0.6035910265348  0.2499024160019 1.0
Ag     2 -0.4462808842072 -0.6035910265348 -0.2499024160019 1.0
Ag     2 -0.2474780926798 -0.0717779402847  0.4091001134966 1.0
Ag     2  0.3192560329645 -0.0717779402847 -0.4091001134966 1.0
Ag     2 -0.1509542010331  0.8622385249202  0.0888112714073 1.0
Ag     2 -0.7112843238871  0.8622385249202 -0.0888112714073 1.0
Ag     2  0.0535596610914  0.3907011020911 -0.2489832088712 1.0
Ag     2  0.5557392368175  0.3907011020911  0.2489832088712 1.0
END
