TITL 4Ag2Se_CONSTCUT_NOSYM-200810-203921-2f1e40 0.2303 220.533773 -4.61181612E+004 0 0 12 (P1) n - 1
REM
REM Run started: Tue, 11 Aug 2020 07:26:42 +0100 in /lustre/scratch/uccabz1/launch_tmp/launcher_2020-08-10-19-39-19-790052
REM CASTEP 20.1 from code version af48c487+ pr-geom-scf-spinfix Tue Jun 2 15:39:59 2020 +0100
REM Functional PBE for solids (2008) Relativity Koelling-Harmon Dispersion off
REM Cut-off 300.0000 eV Grid scale 2.0000 Gmax 26.6208 1/A FBSC none
REM MP grid 4 5 3 Offset 0.000 0.000 0.000 No. kpts 30 Spacing 0.05
REM Total runtime: 44169.9 s
REM Overall efficiency: 93.6667 %
REM
REM 4Ag2Se_CONSTCUT_NOSYM.cell (04f5f378ecb9f162ba8e0859c4ea5e99)
REM
REM compiler GCC version 4.9.2
REM options -cpp -iprefix /lustre/shared/ucl/apps/gcc/4.9.2/bin/../lib/gcc/x86_64-unknown-linux-gnu/4.9.2/ -mtune=corei7 -march=x86-64 -g -Og
REM COMMAND_LINE
REM seed 641895669 -617812306 1891279937 -1407460051 -1923479725 -1223865296 1383171099 2108796910 -654752064 78467915 1426245894 109049068
REM
REM Se 3|2.1|7|7|9|40:41:32(qc=5)
REM Ag 3|2.2|7|7|9|40U:50:41:42(qc=5)
REM 
CELL 1.54180    5.27490    4.86777    9.56722   64.20273   93.87888   93.48550
LATT -1
SFAC Se Ag 
Se     1 -0.4137078155770  0.0798453837350  0.4767993369220 1.0
Se     1  0.3585156482351 -0.2785930682107 -0.0690834243223 1.0
Se     1 -0.0373982571940  0.4078257725870 -0.3019603544672 1.0
Se     1 -0.0820981147781  0.0185238464813  0.1056898832410 1.0
Ag     2 -0.0898457018774 -0.3559682496625  0.3921760176915 1.0
Ag     2  0.1145461863144 -0.0006862046578 -0.4043469724197 1.0
Ag     2 -0.5132191126696 -0.6955094792581 -0.1575947362767 1.0
Ag     2 -0.3052659109722 -0.5782356684215  0.1766782307917 1.0
Ag     2  0.4054845309394 -0.1132060300805  0.1728062098677 1.0
Ag     2  0.4069020676005  0.5397748630210 -0.4897301061841 1.0
Ag     2 -0.1504267232257 -0.2481191468688 -0.1334443649437 1.0
Ag     2  0.1910500032048  0.2728253813356  0.2742900800999 1.0
END
