TITL 4Ag2Se_CONSTCUT_NOSYM-200811-001232-24ce42 0.1478 226.221010 -4.61184235E+004 0 0 12 (P1) n - 1
REM
REM Run started: Tue, 11 Aug 2020 09:00:11 +0100 in /lustre/scratch/uccabz1/launch_tmp/launcher_2020-08-10-23-12-30-628618
REM CASTEP 20.1 from code version af48c487+ pr-geom-scf-spinfix Tue Jun 2 15:39:59 2020 +0100
REM Functional PBE for solids (2008) Relativity Koelling-Harmon Dispersion off
REM Cut-off 300.0000 eV Grid scale 2.0000 Gmax 26.6208 1/A FBSC none
REM MP grid 5 3 4 Offset 0.000 0.000 0.000 No. kpts 30 Spacing 0.05
REM Total runtime: 35666 s
REM Overall efficiency: 89.4167 %
REM
REM 4Ag2Se_CONSTCUT_NOSYM.cell (04f5f378ecb9f162ba8e0859c4ea5e99)
REM
REM compiler GCC version 4.9.2
REM options -cpp -iprefix /lustre/shared/ucl/apps/gcc/4.9.2/bin/../lib/gcc/x86_64-unknown-linux-gnu/4.9.2/ -mtune=corei7 -march=x86-64 -g -Og
REM COMMAND_LINE
REM seed -1680573751 -1905271808 1426555598 1506116522 -929481801 -1736447213 1289071275 -1705279617 847107860 -1520953083 1363247713 -1724321194
REM
REM Se 3|2.1|7|7|9|40:41:32(qc=5)
REM Ag 3|2.2|7|7|9|40U:50:41:42(qc=5)
REM 
CELL 1.54180    4.96589    6.87429    6.68692   83.65661   92.00815   94.05264
LATT -1
SFAC Se Ag 
Se     1  0.2504628260283  0.5431716160814 -0.2630367530313 1.0
Se     1 -0.1238501670360 -0.3484141794185  0.2448223225973 1.0
Se     1 -0.0936133070510  0.0532523636950 -0.2641724970064 1.0
Se     1  0.3559001965139  0.0273670007751  0.3469837360210 1.0
Ag     2 -0.6290746405574 -0.3923489902659  0.1357718786268 1.0
Ag     2 -0.4532714200652  0.3110235009952 -0.4350755914888 1.0
Ag     2  0.0259856517221  0.3010406483634  0.3646465417601 1.0
Ag     2  0.2721395454680  0.2217871513190 -0.0004653514618 1.0
Ag     2  0.3934583122267 -0.0880264611156 -0.2125810429561 1.0
Ag     2 -0.2178121054096  0.4190878111243 -0.0495511438260 1.0
Ag     2 -0.2389869458286 -0.2983314164512 -0.3915520591603 1.0
Ag     2 -0.2452995460112  0.0206613548979  0.1113146599256 1.0
END
