TITL 4Ag2Se_CONSTCUT_NOSYM-200811-034902-e9fc84 -0.0385 219.355432 -4.61182292E+004 0 0 12 (P1) n - 1
REM
REM Run started: Tue, 11 Aug 2020 15:13:04 +0100 in /lustre/scratch/uccabz1/launch_tmp/launcher_2020-08-11-02-49-01-067942
REM CASTEP 20.1 from code version af48c487+ pr-geom-scf-spinfix Tue Jun 2 15:39:59 2020 +0100
REM Functional PBE for solids (2008) Relativity Koelling-Harmon Dispersion off
REM Cut-off 300.0000 eV Grid scale 2.0000 Gmax 26.6208 1/A FBSC none
REM MP grid 5 5 3 Offset 0.000 0.000 0.000 No. kpts 38 Spacing 0.05
REM Total runtime: 45352.1 s
REM Overall efficiency: 98.25 %
REM
REM 4Ag2Se_CONSTCUT_NOSYM.cell (04f5f378ecb9f162ba8e0859c4ea5e99)
REM
REM compiler GCC version 4.9.2
REM options -cpp -iprefix /lustre/shared/ucl/apps/gcc/4.9.2/bin/../lib/gcc/x86_64-unknown-linux-gnu/4.9.2/ -mtune=corei7 -march=x86-64 -g -Og
REM COMMAND_LINE
REM seed -1823298856 -472906267 741751504 -186094023 1034015068 348321907 74654650 -741813482 -1225664666 -1521022220 -1898974094 24467697
REM
REM Se 3|2.1|7|7|9|40:41:32(qc=5)
REM Ag 3|2.2|7|7|9|40U:50:41:42(qc=5)
REM 
CELL 1.54180    5.37189    4.92293    9.10153   94.41550  113.80634   90.47984
LATT -1
SFAC Se Ag 
Se     1  0.3584050400563  0.0091687156261  0.1347522318276 1.0
Se     1 -0.1757065349954 -0.4026427031930 -0.0617283874006 1.0
Se     1 -0.5320881001764 -0.5779809109500 -0.4656775660890 1.0
Se     1  0.0078254725822  0.0677263528631 -0.2752597296379 1.0
Ag     2  0.5843083280442 -0.5271611820402  0.1272775779420 1.0
Ag     2 -0.1063471957185 -0.0185566125728  0.1951181908610 1.0
Ag     2 -0.3565880248601 -0.1495453305952  0.4207193152510 1.0
Ag     2  0.2431563615352 -0.4161309894623 -0.1952108072280 1.0
Ag     2  0.2238105450162 -0.1213619109739  0.5301368498041 1.0
Ag     2  0.1612250327564  0.4898184459148  0.2354574478128 1.0
Ag     2 -0.4124280851815  0.0895572650307 -0.1421617250950 1.0
Ag     2 -0.0846198390584  0.3607823603528  0.4595748019521 1.0
END
