TITL 4Ag2Se_CONSTCUT-200811-080923-0ff2c7 -0.0301 213.225731 -4.61185599E+004 0 0 12 (P21/m) n - 1
REM
REM Run started: Tue, 11 Aug 2020 18:05:04 +0100 in /lustre/scratch/uccabz1/launch_tmp/launcher_2020-08-11-07-09-21-546544
REM CASTEP 20.1 from code version af48c487+ pr-geom-scf-spinfix Tue Jun 2 15:39:59 2020 +0100
REM Functional PBE for solids (2008) Relativity Koelling-Harmon Dispersion off
REM Cut-off 300.0000 eV Grid scale 2.0000 Gmax 26.6208 1/A FBSC none
REM MP grid 4 4 4 Offset 0.000 0.000 0.000 No. kpts 32 Spacing 0.05
REM Total runtime: 35847.8 s
REM Overall efficiency: 97.9231 %
REM
REM 4Ag2Se_CONSTCUT.cell (097ebf1fd09fb02df10c18b5c3809341)
REM
REM compiler GCC version 4.9.2
REM options -cpp -iprefix /lustre/shared/ucl/apps/gcc/4.9.2/bin/../lib/gcc/x86_64-unknown-linux-gnu/4.9.2/ -mtune=corei7 -march=x86-64 -g -Og
REM COMMAND_LINE
REM seed -79837569 -1869052620 1959683320 969619516 -1001241486 912175299 -36024409 -1391486729 -1656655774 -1575874095 -1388097066 -1308182853
REM
REM Se 3|2.1|7|7|9|40:41:32(qc=5)
REM Ag 3|2.2|7|7|9|40U:50:41:42(qc=5)
REM 
CELL 1.54180    5.74737    5.74419    7.00882  105.73024   74.22680   88.82602
LATT -1
SFAC Se Ag 
Se     1 -0.1508238178722  0.4008025599503 -0.2940226772688 1.0
Se     1  0.1508238178722 -0.4008025599503  0.2940226772688 1.0
Se     1  0.3490367660494 -0.0991315913354 -0.2934353792704 1.0
Se     1 -0.3490367660494  0.0991315913354  0.2934353792704 1.0
Ag     2 -0.1432007637409 -0.1068499638856 -0.3365347605180 1.0
Ag     2  0.1432007637409  0.1068499638856  0.3365347605180 1.0
Ag     2 -0.6430078686191  0.3930349227030 -0.3368860349570 1.0
Ag     2  0.6430078686191 -0.3930349227030  0.3368860349570 1.0
Ag     2 -0.4978130711833  0.2470831388612 -0.0052345800718 1.0
Ag     2  0.4978130711833 -0.2470831388612  0.0052345800718 1.0
Ag     2  0.0040738217173 -0.2531345687279 -0.0052150765663 1.0
Ag     2 -0.0040738217173  0.2531345687279  0.0052150765663 1.0
END
