TITL 4Ag2Se_CONSTCUT-200811-052205-4b5253 -0.0115 226.564023 -4.61185316E+004 0 0 12 (P-43m) n - 1
REM
REM Run started: Tue, 11 Aug 2020 07:19:21 +0100 in /lustre/scratch/uccabz1/launch_tmp/launcher_2020-08-11-04-22-03-373039
REM CASTEP 20.1 from code version af48c487+ pr-geom-scf-spinfix Tue Jun 2 15:39:59 2020 +0100
REM Functional PBE for solids (2008) Relativity Koelling-Harmon Dispersion off
REM Cut-off 300.0000 eV Grid scale 2.0000 Gmax 26.6208 1/A FBSC none
REM MP grid 4 4 4 Offset 0.000 0.000 0.000 No. kpts 12 Spacing 0.05
REM Total runtime: 7107.23 s
REM Overall efficiency: 84.7143 %
REM
REM 4Ag2Se_CONSTCUT.cell (097ebf1fd09fb02df10c18b5c3809341)
REM
REM compiler GCC version 4.9.2
REM options -cpp -iprefix /lustre/shared/ucl/apps/gcc/4.9.2/bin/../lib/gcc/x86_64-unknown-linux-gnu/4.9.2/ -mtune=corei7 -march=x86-64 -g -Og
REM COMMAND_LINE
REM seed 552587276 109859902 -607090920 1876234723 1608953902 -1924853789 -2133749871 -1025453369 1517584043 -1021237473 1306550776 -1127243720
REM
REM Se 3|2.1|7|7|9|40:41:32(qc=5)
REM Ag 3|2.2|7|7|9|40U:50:41:42(qc=5)
REM 
CELL 1.54180    6.09626    6.09626    6.09626   90.00410   90.00410   90.00410
LATT -1
SFAC Se Ag 
Se     1 -0.0339405783851 -0.4976870914540 -0.0339559001974 1.0
Se     1 -0.4976870914540 -0.0339559001974 -0.0339405783851 1.0
Se     1 -0.0339559001974 -0.0339405783851 -0.4976870914540 1.0
Se     1  0.5028965132276  0.5028965132276  0.5028965132276 1.0
Ag     2  0.5225837551583 -0.0547617773197 -0.4760734608164 1.0
Ag     2 -0.0547617773197 -0.4760734608164  0.5225837551583 1.0
Ag     2 -0.4760734608164  0.5225837551583 -0.0547617773197 1.0
Ag     2  0.2337967353294  0.2343513962933 -0.2659462691455 1.0
Ag     2  0.2343513962933 -0.2659462691455  0.2337967353294 1.0
Ag     2 -0.2659462691455  0.2337967353294  0.2343513962933 1.0
Ag     2 -0.0551349706614 -0.0551349706614 -0.0551349706614 1.0
Ag     2  0.2347955479710  0.2347955479710  0.2347955479710 1.0
END
