TITL 4Ag2Se_CONSTCUT_NOSYM-200810-223523-6b0e03 0.1043 216.667681 -4.61181073E+004 0 0 12 (P1) n - 1
REM
REM Run started: Tue, 11 Aug 2020 10:07:34 +0100 in /lustre/scratch/uccabz1/launch_tmp/launcher_2020-08-10-21-35-20-949629
REM CASTEP 20.1 from code version af48c487+ pr-geom-scf-spinfix Tue Jun 2 15:39:59 2020 +0100
REM Functional PBE for solids (2008) Relativity Koelling-Harmon Dispersion off
REM Cut-off 300.0000 eV Grid scale 2.0000 Gmax 26.6208 1/A FBSC none
REM MP grid 5 4 3 Offset 0.000 0.000 0.000 No. kpts 30 Spacing 0.05
REM Total runtime: 45404.4 s
REM Overall efficiency: 98.5833 %
REM
REM 4Ag2Se_CONSTCUT_NOSYM.cell (04f5f378ecb9f162ba8e0859c4ea5e99)
REM
REM compiler GCC version 4.9.2
REM options -cpp -iprefix /lustre/shared/ucl/apps/gcc/4.9.2/bin/../lib/gcc/x86_64-unknown-linux-gnu/4.9.2/ -mtune=corei7 -march=x86-64 -g -Og
REM COMMAND_LINE
REM seed -491442945 -675013487 1635530579 -1054718206 -965244064 420989735 -891763352 -269138039 -850580064 -1555762250 1432590697 -163709351
REM
REM Se 3|2.1|7|7|9|40:41:32(qc=5)
REM Ag 3|2.2|7|7|9|40U:50:41:42(qc=5)
REM 
CELL 1.54180    5.62310    6.38388    7.38656   72.68437   68.51488   62.77365
LATT -1
SFAC Se Ag 
Se     1 -0.3371528911384 -0.4090510459472  0.0799998330042 1.0
Se     1 -0.0383892752073  0.0392016829273  0.0060422359741 1.0
Se     1  0.4453139242224  0.4006171047616 -0.3285156948351 1.0
Se     1 -0.1240736421967 -0.2279122730413  0.4418448052145 1.0
Ag     2 -0.5557979001364  0.2337447077642  0.3575198767578 1.0
Ag     2  0.4299723990281 -0.1261060168052 -0.2648242185896 1.0
Ag     2  0.3726832339437 -0.1902625820991  0.3912370648475 1.0
Ag     2  0.1870363274686 -0.4296417129687  0.0577267891975 1.0
Ag     2 -0.0534909679328  0.3849630805475 -0.2937953238218 1.0
Ag     2  0.4151208163842  0.0962846206775  0.0297915136421 1.0
Ag     2 -0.0755947567686  0.2810617792637  0.3556907386336 1.0
Ag     2 -0.0920000676668 -0.0627408450803 -0.2868169200248 1.0
END
