TITL 4Ag2Se_CONSTCUT_NOSYM-200810-234723-4f9194 -0.1081 218.378642 -4.61185874E+004 0 0 12 (C2) n - 1
REM
REM Run started: Tue, 11 Aug 2020 09:35:15 +0100 in /lustre/scratch/uccabz1/launch_tmp/launcher_2020-08-10-22-47-21-932088
REM CASTEP 20.1 from code version af48c487+ pr-geom-scf-spinfix Tue Jun 2 15:39:59 2020 +0100
REM Functional PBE for solids (2008) Relativity Koelling-Harmon Dispersion off
REM Cut-off 300.0000 eV Grid scale 2.0000 Gmax 26.6208 1/A FBSC none
REM MP grid 5 3 4 Offset 0.000 0.000 0.000 No. kpts 30 Spacing 0.05
REM Total runtime: 40641.1 s
REM Overall efficiency: 87.5 %
REM
REM 4Ag2Se_CONSTCUT_NOSYM.cell (04f5f378ecb9f162ba8e0859c4ea5e99)
REM
REM compiler GCC version 4.9.2
REM options -cpp -iprefix /lustre/shared/ucl/apps/gcc/4.9.2/bin/../lib/gcc/x86_64-unknown-linux-gnu/4.9.2/ -mtune=corei7 -march=x86-64 -g -Og
REM COMMAND_LINE
REM seed 1699640647 98343135 -941613760 1813103052 1527429069 -1933825266 1823379489 1985913072 496201036 954131541 1443619406 -1935086078
REM
REM Se 3|2.1|7|7|9|40:41:32(qc=5)
REM Ag 3|2.2|7|7|9|40U:50:41:42(qc=5)
REM 
CELL 1.54180    4.33732    7.66420    7.80854   62.50559   73.60811   89.87541
LATT -1
SFAC Se Ag 
Se     1 -0.5398131724839 -0.2695884242726 -0.3634043403214 1.0
Se     1 -0.3447613806389  0.2265288430122 -0.3593353574316 1.0
Se     1  0.1630131910721 -0.0404297126508  0.2354632586475 1.0
Se     1  0.3570439501610 -0.5391703201941  0.2324838764767 1.0
Ag     2  0.0815234494588  0.0000607622511  0.5973919414483 1.0
Ag     2 -0.2608168349714 -0.3146907516435  0.2778578209410 1.0
Ag     2 -0.1023004958547  0.0911339819602 -0.0575501136568 1.0
Ag     2  0.3993083030668 -0.1576180970626 -0.0619376225747 1.0
Ag     2  0.0798004115133  0.4930104458037 -0.3983660505652 1.0
Ag     2 -0.0998746732271 -0.4041774052811 -0.0724135537169 1.0
Ag     2 -0.6046491916987  0.3428707213932 -0.0648043297650 1.0
Ag     2 -0.2556143563972  0.1925692566844  0.2770371705180 1.0
END
