TITL 4Ag2Se_CONSTCUT_NOSYM-200810-225545-417921 0.0054 222.469919 -4.61185479E+004 0 0 12 (P-1) n - 1
REM
REM Run started: Tue, 11 Aug 2020 07:04:01 +0100 in /lustre/scratch/uccabz1/launch_tmp/launcher_2020-08-11-00-57-49-079509
REM CASTEP 20.1 from code version af48c487+ pr-geom-scf-spinfix Tue Jun 2 15:39:59 2020 +0100
REM Functional PBE for solids (2008) Relativity Koelling-Harmon Dispersion off
REM Cut-off 300.0000 eV Grid scale 2.0000 Gmax 26.6208 1/A FBSC none
REM MP grid 5 3 3 Offset 0.000 0.000 0.000 No. kpts 23 Spacing 0.05
REM Total runtime: 18455.1 s
REM Overall efficiency: 87.7778 %
REM
REM
REM
REM compiler GCC version 4.9.2
REM options -cpp -iprefix /lustre/shared/ucl/apps/gcc/4.9.2/bin/../lib/gcc/x86_64-unknown-linux-gnu/4.9.2/ -mtune=corei7 -march=x86-64 -g -Og
REM COMMAND_LINE
REM seed 1116963526 -1484676419 686507649 -1218323740 -1430486784 -1459143572 -1819603180 1270723503 -357004990 1750630622 -461639255 1183513256
REM
REM Se 3|2.1|7|7|9|40:41:32(qc=5)
REM Ag 3|2.2|7|7|9|40U:50:41:42(qc=5)
REM 
CELL 1.54180    4.32024    6.73957    7.94276   90.97847   75.45475   84.15231
LATT -1
SFAC Se Ag 
Se     1 -0.0037219252349  0.3891044243510  0.1620372401713 1.0
Se     1  0.3832007410205  0.3932169196131 -0.2981044867926 1.0
Se     1 -0.4833811464400 -0.0959460475773 -0.1000191984333 1.0
Se     1  0.1303587580649 -0.1003849149699  0.3601529832514 1.0
Ag     2 -0.0438502601515 -0.3090740004552 -0.3441687370804 1.0
Ag     2 -0.4293503311645  0.5115497287001 -0.0214140000583 1.0
Ag     2  0.5563003838634 -0.3975504628321  0.4059443367654 1.0
Ag     2 -0.4540188465764  0.1506941983730  0.2071702246192 1.0
Ag     2 -0.4833181635385  0.0029450133799 -0.4362255820296 1.0
Ag     2 -0.0576201197959 -0.2183493883987  0.0834940332019 1.0
Ag     2 -0.0044080616216  0.2894969357244 -0.5019686666618 1.0
Ag     2 -0.0337870284256  0.1427225940916 -0.1444631469532 1.0
END
