TITL 4Ag2Se_CONSTCUT_NOSYM-200810-162840-1c30e4 -0.0303 232.846619 -4.61178608E+004 0 0 12 (P1) n - 1
REM
REM Run started: Tue, 11 Aug 2020 02:21:16 +0100 in /lustre/scratch/uccabz1/launch_tmp/launcher_2020-08-10-15-28-38-888413
REM CASTEP 20.1 from code version af48c487+ pr-geom-scf-spinfix Tue Jun 2 15:39:59 2020 +0100
REM Functional PBE for solids (2008) Relativity Koelling-Harmon Dispersion off
REM Cut-off 300.0000 eV Grid scale 2.0000 Gmax 26.6208 1/A FBSC none
REM MP grid 4 4 4 Offset 0.000 0.000 0.000 No. kpts 32 Spacing 0.05
REM Total runtime: 35743.1 s
REM Overall efficiency: 98 %
REM
REM 4Ag2Se_CONSTCUT_NOSYM.cell (04f5f378ecb9f162ba8e0859c4ea5e99)
REM
REM compiler GCC version 4.9.2
REM options -cpp -iprefix /lustre/shared/ucl/apps/gcc/4.9.2/bin/../lib/gcc/x86_64-unknown-linux-gnu/4.9.2/ -mtune=corei7 -march=x86-64 -g -Og
REM COMMAND_LINE
REM seed 1893252859 -552977780 -1585384879 -1228502562 -1807208712 2104478512 -713113712 1800596264 -1890458398 -1355658349 2071190329 669447394
REM
REM Se 3|2.1|7|7|9|40:41:32(qc=5)
REM Ag 3|2.2|7|7|9|40U:50:41:42(qc=5)
REM 
CELL 1.54180    6.65969    6.21709    7.29408   95.40406  119.02749  111.00377
LATT -1
SFAC Se Ag 
Se     1  0.1960161594087 -0.0404391223476  0.1968473162975 1.0
Se     1  0.4281293459388  0.4773692779998  0.0420402481456 1.0
Se     1 -0.1349889099453 -0.3302344980333 -0.3456420743204 1.0
Se     1 -0.3296960999287  0.0754402392239 -0.0152489302047 1.0
Ag     2 -0.4660426825375 -0.3618349615585 -0.2262407695245 1.0
Ag     2  0.0302842173705 -0.2815354247611  0.3983744121238 1.0
Ag     2  0.0047582240163 -0.5357556531075 -0.0201438305875 1.0
Ag     2  0.0539075170758  0.1371217199572 -0.3324490760303 1.0
Ag     2  0.1291538022179  0.3179394705479  0.3560244548647 1.0
Ag     2 -0.4869655411608 -0.2168164756406 -0.6024331373536 1.0
Ag     2  0.4892904569879  0.1722983743222 -0.3736080571338 1.0
Ag     2 -0.3266971894437  0.2599845533976  0.3258011437233 1.0
END
