TITL 4Ag2Se_CONSTCUT_NOSYM-200810-163715-983d99 -0.0256 228.574701 -4.61184864E+004 0 0 12 (P1) n - 1
REM
REM Run started: Tue, 11 Aug 2020 03:46:33 +0100 in /lustre/scratch/uccabz1/launch_tmp/launcher_2020-08-10-15-37-14-119376
REM CASTEP 20.1 from code version af48c487+ pr-geom-scf-spinfix Tue Jun 2 15:39:59 2020 +0100
REM Functional PBE for solids (2008) Relativity Koelling-Harmon Dispersion off
REM Cut-off 300.0000 eV Grid scale 2.0000 Gmax 26.6208 1/A FBSC none
REM MP grid 5 4 3 Offset 0.000 0.000 0.000 No. kpts 30 Spacing 0.05
REM Total runtime: 40288.9 s
REM Overall efficiency: 97.8333 %
REM
REM 4Ag2Se_CONSTCUT_NOSYM.cell (04f5f378ecb9f162ba8e0859c4ea5e99)
REM
REM compiler GCC version 4.9.2
REM options -cpp -iprefix /lustre/shared/ucl/apps/gcc/4.9.2/bin/../lib/gcc/x86_64-unknown-linux-gnu/4.9.2/ -mtune=corei7 -march=x86-64 -g -Og
REM COMMAND_LINE
REM seed -730079484 -618518123 -1545362441 1538511897 -409741956 -1973378462 359705060 -1897670139 -2089521797 1470012372 -538528585 -535156041
REM
REM Se 3|2.1|7|7|9|40:41:32(qc=5)
REM Ag 3|2.2|7|7|9|40U:50:41:42(qc=5)
REM 
CELL 1.54180    4.88529    6.80205    7.84904  111.59452  108.49360   88.91338
LATT -1
SFAC Se Ag 
Se     1  0.4312139564142  0.5179857006298  0.5323168565601 1.0
Se     1  0.2891277797731 -0.2470462704168  0.0497813435529 1.0
Se     1 -0.1451823331877  0.0166005814186  0.5105787916696 1.0
Se     1 -0.2046315491096  0.2794451179114  0.0166979970267 1.0
Ag     2 -0.5220399347439 -0.0378717377428 -0.3077153698328 1.0
Ag     2  0.1906944874003  0.3587885810743 -0.2381712083964 1.0
Ag     2  0.0529973615657 -0.3208190468306  0.3013659403869 1.0
Ag     2 -0.2728541716301 -0.3732553086202 -0.0854709529344 1.0
Ag     2  0.2952329629205  0.1338508594855  0.0193181963928 1.0
Ag     2 -0.0119958875322 -0.2573601046654 -0.3097021427086 1.0
Ag     2  0.2888938427497  0.0935594648071  0.3680322814820 1.0
Ag     2 -0.2020253146198  0.3327389629489  0.3596059668012 1.0
END
