TITL 4Ag2Se_CONSTCUT_NOSYM-200810-161945-c54720 -0.0694 215.475559 -4.61181951E+004 0 0 12 (P1) n - 1
REM
REM Run started: Tue, 11 Aug 2020 02:21:23 +0100 in /lustre/scratch/uccabz1/launch_tmp/launcher_2020-08-10-15-19-43-670582
REM CASTEP 20.1 from code version af48c487+ pr-geom-scf-spinfix Tue Jun 2 15:39:59 2020 +0100
REM Functional PBE for solids (2008) Relativity Koelling-Harmon Dispersion off
REM Cut-off 300.0000 eV Grid scale 2.0000 Gmax 26.6208 1/A FBSC none
REM MP grid 6 5 2 Offset 0.000 0.000 0.000 No. kpts 30 Spacing 0.05
REM Total runtime: 40624.2 s
REM Overall efficiency: 98.75 %
REM
REM 4Ag2Se_CONSTCUT_NOSYM.cell (04f5f378ecb9f162ba8e0859c4ea5e99)
REM
REM compiler GCC version 4.9.2
REM options -cpp -iprefix /lustre/shared/ucl/apps/gcc/4.9.2/bin/../lib/gcc/x86_64-unknown-linux-gnu/4.9.2/ -mtune=corei7 -march=x86-64 -g -Og
REM COMMAND_LINE
REM seed 930465729 -2111733818 890623928 673088562 2086724893 565287928 -864214234 1939611660 1957282953 674683293 -1919200563 1547664565
REM
REM Se 3|2.1|7|7|9|40:41:32(qc=5)
REM Ag 3|2.2|7|7|9|40U:50:41:42(qc=5)
REM 
CELL 1.54180    4.12433    4.84339   12.02672   79.85129   82.42732   65.95144
LATT -1
SFAC Se Ag 
Se     1  0.1038860713231  0.5644993175622  0.3475479471836 1.0
Se     1 -0.1783567011934 -0.1140863509293 -0.3680469806608 1.0
Se     1  0.3969969017988 -0.5882576106136 -0.1984041301098 1.0
Se     1 -0.1936681930329  0.3043281652188  0.1532739883067 1.0
Ag     2  0.0804302551644  0.0001976818462 -0.1535847850019 1.0
Ag     2 -0.5460789303168 -0.0686697341256  0.2577566678375 1.0
Ag     2 -0.2431420159462 -0.4128096922156 -0.0683469485731 1.0
Ag     2  0.4621690757500 -0.2873367173019 -0.4971560869383 1.0
Ag     2  0.4426941415064  0.1464111621191  0.0153862831023 1.0
Ag     2  0.1369203040742  0.2872482838245 -0.4010970682844 1.0
Ag     2  0.1203392027414 -0.2703191216816  0.0961623809116 1.0
Ag     2 -0.2156397118690  0.1510819162967  0.4127956322265 1.0
END
