TITL 4Ag2Se_CONSTCUT-200811-064141-e899a8 -0.0336 218.468048 -4.61186071E+004 0 0 12 (Ima2) n - 1
REM
REM Run started: Tue, 11 Aug 2020 10:22:01 +0100 in /lustre/scratch/uccabz1/launch_tmp/launcher_2020-08-11-05-41-40-119862
REM CASTEP 20.1 from code version af48c487+ pr-geom-scf-spinfix Tue Jun 2 15:39:59 2020 +0100
REM Functional PBE for solids (2008) Relativity Koelling-Harmon Dispersion off
REM Cut-off 300.0000 eV Grid scale 2.0000 Gmax 26.6208 1/A FBSC none
REM MP grid 6 4 4 Offset 0.000 0.000 0.000 No. kpts 30 Spacing 0.05
REM Total runtime: 18012.5 s
REM Overall efficiency: 98.5714 %
REM
REM 4Ag2Se_CONSTCUT.cell (097ebf1fd09fb02df10c18b5c3809341)
REM
REM compiler GCC version 4.9.2
REM options -cpp -iprefix /lustre/shared/ucl/apps/gcc/4.9.2/bin/../lib/gcc/x86_64-unknown-linux-gnu/4.9.2/ -mtune=corei7 -march=x86-64 -g -Og
REM COMMAND_LINE
REM seed 73164363 -35333805 -431661601 1797841790 1919550685 1167772087 1911203150 839642991 234971689 -1707384107 -129801790 -1404655970
REM
REM Se 3|2.1|7|7|9|40:41:32(qc=5)
REM Ag 3|2.2|7|7|9|40U:50:41:42(qc=5)
REM 
CELL 1.54180    4.39307    7.88979    7.88979  112.56952  106.16306  106.16306
LATT -1
SFAC Se Ag 
Se     1  0.4964507146371  0.2330267906299  0.4336689109871 1.0
Se     1 -0.0035492853629  0.4336689109871  0.2330267906299 1.0
Se     1 -0.7113317590881 -0.0647678923044 -0.2690974843779 1.0
Se     1 -0.2113317590881 -0.2690974843779 -0.0647678923044 1.0
Ag     2 -0.3615983314357 -0.3317311062394 -0.4865690944749 1.0
Ag     2 -0.8615983314357 -0.4865690944749 -0.3317311062394 1.0
Ag     2 -0.8327971161136 -0.1669514169109 -0.6671661781232 1.0
Ag     2  0.6672028838864  0.3328338218768  0.8330485830891 1.0
Ag     2  0.9183156259650  0.0912347716525  0.5752009122847 1.0
Ag     2 -0.5816843740350 -0.4247990877153 -0.9087652283475 1.0
Ag     2  0.6204460660354 -0.0034523892692  0.1528044761457 1.0
Ag     2  0.1204460660354  0.1528044761457 -0.0034523892692 1.0
END
