TITL 4Ag2Se_CONSTCUT_NOSYM-200810-230813-acc720 -0.0220 225.111196 -4.61184250E+004 0 0 12 (P1) n - 1
REM
REM Run started: Tue, 11 Aug 2020 07:59:08 +0100 in /lustre/scratch/uccabz1/launch_tmp/launcher_2020-08-10-22-08-11-651969
REM CASTEP 20.1 from code version af48c487+ pr-geom-scf-spinfix Tue Jun 2 15:39:59 2020 +0100
REM Functional PBE for solids (2008) Relativity Koelling-Harmon Dispersion off
REM Cut-off 300.0000 eV Grid scale 2.0000 Gmax 26.6208 1/A FBSC none
REM MP grid 5 3 3 Offset 0.000 0.000 0.000 No. kpts 23 Spacing 0.05
REM Total runtime: 31953.8 s
REM Overall efficiency: 81.9231 %
REM
REM 4Ag2Se_CONSTCUT_NOSYM.cell (04f5f378ecb9f162ba8e0859c4ea5e99)
REM
REM compiler GCC version 4.9.2
REM options -cpp -iprefix /lustre/shared/ucl/apps/gcc/4.9.2/bin/../lib/gcc/x86_64-unknown-linux-gnu/4.9.2/ -mtune=corei7 -march=x86-64 -g -Og
REM COMMAND_LINE
REM seed 2119965010 2006101891 1989219367 -700607523 643818223 605299467 -24702424 315319001 996446421 759087985 1225253386 937296561
REM
REM Se 3|2.1|7|7|9|40:41:32(qc=5)
REM Ag 3|2.2|7|7|9|40U:50:41:42(qc=5)
REM 
CELL 1.54180    4.56810    7.49096    7.31296   71.77349   89.49827   72.08997
LATT -1
SFAC Se Ag 
Se     1  0.4963412893606  0.2271363852631 -0.4314107467378 1.0
Se     1  0.1540833595045  0.1786545741875  0.0757816282646 1.0
Se     1 -0.0704932122045 -0.3169037007407  0.2231226716911 1.0
Se     1  0.6436894116592 -0.2858627166554 -0.2640617889365 1.0
Ag     2 -0.0731738701309  0.3755214501193 -0.3292866100947 1.0
Ag     2 -0.6796464380586 -0.3437755076190  0.4831139815819 1.0
Ag     2 -0.3796352204189 -0.0234491561682  0.3546785729928 1.0
Ag     2  0.3646842556897  0.4595081034294 -0.0966585036994 1.0
Ag     2 -0.2573416893870  0.0498209125588 -0.0650786858640 1.0
Ag     2  0.3592219985730 -0.2155372442270  0.0316932162797 1.0
Ag     2 -0.2476207386834  0.3637905671093  0.2623684389448 1.0
Ag     2  0.0898386540963 -0.0078534672571 -0.3947618744226 1.0
END
