TITL 4Ag2Se_CONSTCUT_NOSYM-200811-014444-7342e2 0.0045 233.216152 -4.61185388E+004 0 0 12 (P21/m) n - 1
REM
REM Run started: Tue, 11 Aug 2020 10:03:17 +0100 in /lustre/scratch/uccabz1/launch_tmp/launcher_2020-08-11-00-44-43-039987
REM CASTEP 20.1 from code version af48c487+ pr-geom-scf-spinfix Tue Jun 2 15:39:59 2020 +0100
REM Functional PBE for solids (2008) Relativity Koelling-Harmon Dispersion off
REM Cut-off 300.0000 eV Grid scale 2.0000 Gmax 26.6208 1/A FBSC none
REM MP grid 5 4 3 Offset 0.000 0.000 0.000 No. kpts 30 Spacing 0.05
REM Total runtime: 30027.6 s
REM Overall efficiency: 97.1667 %
REM
REM 4Ag2Se_CONSTCUT_NOSYM.cell (04f5f378ecb9f162ba8e0859c4ea5e99)
REM
REM compiler GCC version 4.9.2
REM options -cpp -iprefix /lustre/shared/ucl/apps/gcc/4.9.2/bin/../lib/gcc/x86_64-unknown-linux-gnu/4.9.2/ -mtune=corei7 -march=x86-64 -g -Og
REM COMMAND_LINE
REM seed 1708807211 -625423854 -60493619 87106567 1179769397 -497412042 29535525 -784142427 -1129284040 1067354014 -954984947 -1656260422
REM
REM Se 3|2.1|7|7|9|40:41:32(qc=5)
REM Ag 3|2.2|7|7|9|40U:50:41:42(qc=5)
REM 
CELL 1.54180    4.21422    6.49986    8.52006   87.85012   90.00196   89.96724
LATT -1
SFAC Se Ag 
Se     1  0.4037650661656 -0.4780181206720 -0.3017337031989 1.0
Se     1 -0.0964906270344 -0.0022770898744  0.0088310580996 1.0
Se     1 -0.0965210764462 -0.1432427142781  0.4314688100283 1.0
Se     1  0.4032245856559  0.3821671033078  0.1191889997488 1.0
Ag     2 -0.5967521474176 -0.2553078554656 -0.0420620943370 1.0
Ag     2 -0.0966066521930 -0.1315758732694 -0.2702433212485 1.0
Ag     2 -0.0967423392164 -0.3642950344503  0.1726061720157 1.0
Ag     2  0.4035832164114  0.1526794449093 -0.1668811547201 1.0
Ag     2 -0.0966911107861  0.2252215698605  0.2924535989273 1.0
Ag     2 -0.0963916850078  0.3060386397822 -0.3735273376188 1.0
Ag     2  0.4035394151423  0.0729252876960  0.4988396898764 1.0
Ag     2  0.4033547547263 -0.4921237575458  0.3994245824270 1.0
END
