TITL 4Ag2Se_CONSTCUT_NOSYM-200810-165955-137d0b -0.0172 220.648679 -4.61187627E+004 0 0 12 (P21) n - 1
REM
REM Run started: Tue, 11 Aug 2020 00:08:57 +0100 in /lustre/scratch/uccabz1/launch_tmp/launcher_2020-08-10-15-59-53-494706
REM CASTEP 20.1 from code version af48c487+ pr-geom-scf-spinfix Tue Jun 2 15:39:59 2020 +0100
REM Functional PBE for solids (2008) Relativity Koelling-Harmon Dispersion off
REM Cut-off 300.0000 eV Grid scale 2.0000 Gmax 26.6208 1/A FBSC none
REM MP grid 5 3 3 Offset 0.000 0.000 0.000 No. kpts 23 Spacing 0.05
REM Total runtime: 28065.3 s
REM Overall efficiency: 81.7692 %
REM
REM 4Ag2Se_CONSTCUT_NOSYM.cell (04f5f378ecb9f162ba8e0859c4ea5e99)
REM
REM compiler GCC version 4.9.2
REM options -cpp -iprefix /lustre/shared/ucl/apps/gcc/4.9.2/bin/../lib/gcc/x86_64-unknown-linux-gnu/4.9.2/ -mtune=corei7 -march=x86-64 -g -Og
REM COMMAND_LINE
REM seed 898275628 -686219499 804113972 -656115363 912250956 1210262016 829844243 -68619863 1251629849 2043200317 1968479048 -1470046137
REM
REM Se 3|2.1|7|7|9|40:41:32(qc=5)
REM Ag 3|2.2|7|7|9|40U:50:41:42(qc=5)
REM 
CELL 1.54180    4.53375    6.83205    7.12376   90.49487   89.96058   89.94900
LATT -1
SFAC Se Ag 
Se     1  0.2723057450636 -0.4505451091962 -0.3830254678328 1.0
Se     1 -0.4687364385544  0.5390038278645  0.1153006266816 1.0
Se     1 -0.2248983174407  0.0386491681171  0.2615160561218 1.0
Se     1  0.0328633924855  0.0501036701646 -0.2376889649186 1.0
Ag     2 -0.0208197064287  0.4218955149645 -0.0879947118872 1.0
Ag     2  0.1579642573365 -0.1805131242255  0.0642401228606 1.0
Ag     2  0.1698932101250  0.3069945496786  0.3113082616728 1.0
Ag     2 -0.6503517951744 -0.0795296053286 -0.5217601722644 1.0
Ag     2 -0.1489871120517 -0.3331291931450  0.3971616835355 1.0
Ag     2 -0.5196719260222  0.1651857978200 -0.0327236904576 1.0
Ag     2 -0.3317402732420  0.2808894699809 -0.4332409135515 1.0
Ag     2  0.6595620639035 -0.2323978666951 -0.1918262299602 1.0
END
