TITL 4Ag2Se_CONSTCUT-200811-160003-e98bca -0.0186 210.966386 -4.61178166E+004 0 0 12 (I4/mmm) n - 1
REM
REM Run started: Tue, 11 Aug 2020 18:27:02 +0100 in /lustre/scratch/uccabz1/launch_tmp/launcher_2020-08-11-15-00-01-416618
REM CASTEP 20.1 from code version af48c487+ pr-geom-scf-spinfix Tue Jun 2 15:39:59 2020 +0100
REM Functional PBE for solids (2008) Relativity Koelling-Harmon Dispersion off
REM Cut-off 300.0000 eV Grid scale 2.0000 Gmax 26.6208 1/A FBSC none
REM MP grid 4 4 3 Offset 0.000 0.000 0.000 No. kpts 8 Spacing 0.05
REM Total runtime: 10023.9 s
REM Overall efficiency: 98 %
REM
REM 4Ag2Se_CONSTCUT.cell (097ebf1fd09fb02df10c18b5c3809341)
REM
REM compiler GCC version 4.9.2
REM options -cpp -iprefix /lustre/shared/ucl/apps/gcc/4.9.2/bin/../lib/gcc/x86_64-unknown-linux-gnu/4.9.2/ -mtune=corei7 -march=x86-64 -g -Og
REM COMMAND_LINE
REM seed -1475748552 887854085 -806136728 991772887 -320390264 -1013502184 -837093084 -254147961 -201946658 -1321506954 -1293880014 -2044683415
REM
REM Se 3|2.1|7|7|9|40:41:32(qc=5)
REM Ag 3|2.2|7|7|9|40U:50:41:42(qc=5)
REM 
CELL 1.54180    5.01164    5.01185    8.39914   90.00000   90.00000   90.00000
LATT -1
SFAC Se Ag 
Se     1  0.2497876291550 -0.2501407911744 -0.2499421300102 1.0
Se     1  0.2497876291550  0.2501407911744  0.2499421300102 1.0
Se     1 -0.2497876291550 -0.2501407911744  0.2499421300102 1.0
Se     1 -0.2497876291550  0.2501407911744 -0.2499421300102 1.0
Ag     2 -0.2500689868582  0.2500689853961  0.0823562360790 1.0
Ag     2 -0.2500689868582 -0.2500689853961 -0.0823562360790 1.0
Ag     2  0.2500689868582  0.2500689853961 -0.0823562360790 1.0
Ag     2  0.2500689868582 -0.2500689853961  0.0823562360790 1.0
Ag     2  0.2500370589320 -0.2496003421618  0.4178066483355 1.0
Ag     2  0.2500370589320  0.2496003421618 -0.4178066483355 1.0
Ag     2 -0.2500370589320 -0.2496003421618 -0.4178066483355 1.0
Ag     2 -0.2500370589320  0.2496003421618  0.4178066483355 1.0
END
