TITL 4Ag2Se_CONSTCUT_NOSYM-200811-003837-bde930 -0.0629 223.949956 -4.61185174E+004 0 0 12 (P1) n - 1
REM
REM Run started: Tue, 11 Aug 2020 08:34:46 +0100 in /lustre/scratch/uccabz1/launch_tmp/launcher_2020-08-10-23-38-35-461673
REM CASTEP 20.1 from code version af48c487+ pr-geom-scf-spinfix Tue Jun 2 15:39:59 2020 +0100
REM Functional PBE for solids (2008) Relativity Koelling-Harmon Dispersion off
REM Cut-off 300.0000 eV Grid scale 2.0000 Gmax 26.6208 1/A FBSC none
REM MP grid 5 3 3 Offset 0.000 0.000 0.000 No. kpts 23 Spacing 0.05
REM Total runtime: 28652.1 s
REM Overall efficiency: 83.6923 %
REM
REM 4Ag2Se_CONSTCUT_NOSYM.cell (04f5f378ecb9f162ba8e0859c4ea5e99)
REM
REM compiler GCC version 4.9.2
REM options -cpp -iprefix /lustre/shared/ucl/apps/gcc/4.9.2/bin/../lib/gcc/x86_64-unknown-linux-gnu/4.9.2/ -mtune=corei7 -march=x86-64 -g -Og
REM COMMAND_LINE
REM seed 1599239473 -1254945895 1743524882 -1413135807 2102445510 -482075720 1965985981 -150567608 452285851 -486169409 1133568855 1496927457
REM
REM Se 3|2.1|7|7|9|40:41:32(qc=5)
REM Ag 3|2.2|7|7|9|40U:50:41:42(qc=5)
REM 
CELL 1.54180    4.22742    6.88129    7.72587   93.52758   90.69172   86.74349
LATT -1
SFAC Se Ag 
Se     1 -0.1096588149823  0.2869287086471  0.3793021457150 1.0
Se     1  0.0916247324756  0.3276808291722 -0.1115907043499 1.0
Se     1 -0.4935714751457 -0.1341254776213  0.2269168681600 1.0
Se     1 -0.3606684928240 -0.0821154986200 -0.2657478123040 1.0
Ag     2  0.0899649367308 -0.0688052910452  0.4838420271317 1.0
Ag     2  0.5227693424487  0.2337411998376  0.1106809794138 1.0
Ag     2  0.4302865582392  0.2731253451788 -0.3933198553367 1.0
Ag     2 -0.3399209090513  0.5966221432869 -0.0185406908823 1.0
Ag     2  0.1703876797506 -0.3436651383452 -0.2592106653431 1.0
Ag     2  0.0416402016450 -0.0507248474720  0.0099988322020 1.0
Ag     2  0.1546280941360 -0.4273460946508  0.2416872767748 1.0
Ag     2 -0.3363515534225 -0.3766768783681 -0.5000749011815 1.0
END
