TITL 4Ag2Se_CONSTCUT_NOSYM-200810-171014-2b55bc 0.0138 224.804878 -4.61178803E+004 0 0 12 (P1) n - 1
REM
REM Run started: Tue, 11 Aug 2020 01:22:18 +0100 in /lustre/scratch/uccabz1/launch_tmp/launcher_2020-08-10-16-10-13-035810
REM CASTEP 20.1 from code version af48c487+ pr-geom-scf-spinfix Tue Jun 2 15:39:59 2020 +0100
REM Functional PBE for solids (2008) Relativity Koelling-Harmon Dispersion off
REM Cut-off 300.0000 eV Grid scale 2.0000 Gmax 26.6208 1/A FBSC none
REM MP grid 6 4 3 Offset 0.000 0.000 0.000 No. kpts 36 Spacing 0.05
REM Total runtime: 29710 s
REM Overall efficiency: 97.8889 %
REM
REM 4Ag2Se_CONSTCUT_NOSYM.cell (04f5f378ecb9f162ba8e0859c4ea5e99)
REM
REM compiler GCC version 4.9.2
REM options -cpp -iprefix /lustre/shared/ucl/apps/gcc/4.9.2/bin/../lib/gcc/x86_64-unknown-linux-gnu/4.9.2/ -mtune=corei7 -march=x86-64 -g -Og
REM COMMAND_LINE
REM seed -52969831 1540534348 871434276 -1099975106 1553554566 1067550561 -516109521 -212537058 -1844571082 -1704265998 811508978 798543003
REM
REM Se 3|2.1|7|7|9|40:41:32(qc=5)
REM Ag 3|2.2|7|7|9|40U:50:41:42(qc=5)
REM 
CELL 1.54180    3.87771    6.46388   10.38473   73.01606  113.99515   89.22461
LATT -1
SFAC Se Ag 
Se     1  0.2508226660056 -0.3961943148446 -0.3002440139894 1.0
Se     1  0.4721112248315  0.1815356079017  0.5033869756966 1.0
Se     1 -0.6038047553094 -0.0157123086639 -0.1488671059826 1.0
Se     1  0.2811468314887 -0.2213913851326  0.3219246738565 1.0
Ag     2 -0.1034830333028  0.4790476179427  0.4374423700703 1.0
Ag     2  0.1486395014211 -0.0307525564055  0.0521507075601 1.0
Ag     2 -0.0798052728507 -0.0525310965716  0.4458539984596 1.0
Ag     2 -0.4203710848136  0.2958872854851 -0.0053897129839 1.0
Ag     2  0.3216561158900  0.2862954630131  0.2131974541217 1.0
Ag     2 -0.1962493723552  0.3060516630696 -0.2525448509171 1.0
Ag     2 -0.2755303306574 -0.3782117819555  0.1276438415468 1.0
Ag     2 -0.0177942903480 -0.3714289938384 -0.0921971374386 1.0
END
