TITL 4Ag2Se_CONSTCUT-200811-052349-bc2473 -0.0191 216.315235 -4.61183725E+004 0 0 12 (P21) n - 1
REM
REM Run started: Tue, 11 Aug 2020 11:28:14 +0100 in /lustre/scratch/uccabz1/launch_tmp/launcher_2020-08-11-04-23-47-843504
REM CASTEP 20.1 from code version af48c487+ pr-geom-scf-spinfix Tue Jun 2 15:39:59 2020 +0100
REM Functional PBE for solids (2008) Relativity Koelling-Harmon Dispersion off
REM Cut-off 300.0000 eV Grid scale 2.0000 Gmax 26.6208 1/A FBSC none
REM MP grid 5 4 3 Offset 0.000 0.000 0.000 No. kpts 18 Spacing 0.05
REM Total runtime: 22141 s
REM Overall efficiency: 91.7 %
REM
REM 4Ag2Se_CONSTCUT.cell (097ebf1fd09fb02df10c18b5c3809341)
REM
REM compiler GCC version 4.9.2
REM options -cpp -iprefix /lustre/shared/ucl/apps/gcc/4.9.2/bin/../lib/gcc/x86_64-unknown-linux-gnu/4.9.2/ -mtune=corei7 -march=x86-64 -g -Og
REM COMMAND_LINE
REM seed 960198566 -1386981528 -422712986 650777312 1859424425 -179912286 -868811736 1479969817 108032893 -2125490785 1934241430 357201169
REM
REM Se 3|2.1|7|7|9|40:41:32(qc=5)
REM Ag 3|2.2|7|7|9|40U:50:41:42(qc=5)
REM 
CELL 1.54180    4.25872    5.71056    9.05377  100.75769   90.00000   90.00000
LATT -1
SFAC Se Ag 
Se     1  0.0926124080043  0.2015416780947  0.1105706969586 1.0
Se     1 -0.4073875919957 -0.2015416780947 -0.1105706969586 1.0
Se     1 -0.0615449152676 -0.2045308155207  0.3895056747715 1.0
Se     1  0.4384550847324  0.2045308155207 -0.3895056747715 1.0
Ag     2  0.5268904867686 -0.0060928045268  0.2409276224685 1.0
Ag     2  0.0268904867686  0.0060928045268 -0.2409276224685 1.0
Ag     2 -0.5034811174647 -0.3108487285284 -0.4229303070108 1.0
Ag     2 -0.0034811174647  0.3108487285284  0.4229303070108 1.0
Ag     2  0.0308475944012 -0.3243805258307  0.0742820978676 1.0
Ag     2 -0.4691524055988  0.3243805258307 -0.0742820978676 1.0
Ag     2 -0.4908758564418  0.4991463146021  0.2541125852059 1.0
Ag     2  0.0091241435582 -0.4991463146021 -0.2541125852059 1.0
END
