TITL 4Ag2Se_CONSTCUT_NOSYM-200810-183101-afd75a -0.0341 226.511511 -4.61183973E+004 0 0 12 (P1) n - 1
REM
REM Run started: Tue, 11 Aug 2020 09:56:27 +0100 in /lustre/scratch/uccabz1/launch_tmp/launcher_2020-08-10-17-31-00-248885
REM CASTEP 20.1 from code version af48c487+ pr-geom-scf-spinfix Tue Jun 2 15:39:59 2020 +0100
REM Functional PBE for solids (2008) Relativity Koelling-Harmon Dispersion off
REM Cut-off 300.0000 eV Grid scale 2.0000 Gmax 26.6208 1/A FBSC none
REM MP grid 5 4 4 Offset 0.000 0.000 0.000 No. kpts 40 Spacing 0.05
REM Total runtime: 55903.9 s
REM Overall efficiency: 98.1538 %
REM
REM 4Ag2Se_CONSTCUT_NOSYM.cell (04f5f378ecb9f162ba8e0859c4ea5e99)
REM
REM compiler GCC version 4.9.2
REM options -cpp -iprefix /lustre/shared/ucl/apps/gcc/4.9.2/bin/../lib/gcc/x86_64-unknown-linux-gnu/4.9.2/ -mtune=corei7 -march=x86-64 -g -Og
REM COMMAND_LINE
REM seed 1394503196 -589852274 1673491525 855162707 -161052854 -1306012180 -54791016 1920765423 -68619863 -798521828 -9908420 1898647142
REM
REM Se 3|2.1|7|7|9|40:41:32(qc=5)
REM Ag 3|2.2|7|7|9|40U:50:41:42(qc=5)
REM 
CELL 1.54180    4.72959    7.53314    8.70946  122.37077  107.51555  100.32879
LATT -1
SFAC Se Ag 
Se     1  0.4940145374484  0.1477762944165  0.1752307571657 1.0
Se     1  0.0767003571256  0.2594519020825 -0.3295083054994 1.0
Se     1 -0.1083774961721 -0.3640402677894  0.1176568512357 1.0
Se     1 -0.5555950037383 -0.2738340979333 -0.3993311834550 1.0
Ag     2  0.0918417513417 -0.0127086241541 -0.1888602679716 1.0
Ag     2  0.0640972305333  0.3390092609377  0.1595459653088 1.0
Ag     2 -0.2186474941027 -0.3938200262532  0.3880456777240 1.0
Ag     2  0.1427279814944  0.1228487339151  0.3493206731835 1.0
Ag     2 -0.2274208041094 -0.4787568194511 -0.3057743138478 1.0
Ag     2  0.4602469049748 -0.2688156904802 -0.0767216771016 1.0
Ag     2 -0.3982932766993  0.1721355227533 -0.2399341589012 1.0
Ag     2  0.5336867119037 -0.1251334880438  0.3208598821589 1.0
END
