TITL 4Ag2Se_CONSTCUT_NOSYM-200811-021133-8f4b8c 0.0209 220.063357 -4.61185682E+004 0 0 12 (P1) n - 1
REM
REM Run started: Tue, 11 Aug 2020 15:41:12 +0100 in /lustre/scratch/uccabz1/launch_tmp/launcher_2020-08-11-01-11-31-203996
REM CASTEP 20.1 from code version af48c487+ pr-geom-scf-spinfix Tue Jun 2 15:39:59 2020 +0100
REM Functional PBE for solids (2008) Relativity Koelling-Harmon Dispersion off
REM Cut-off 300.0000 eV Grid scale 2.0000 Gmax 26.6208 1/A FBSC none
REM MP grid 5 4 4 Offset 0.000 0.000 0.000 No. kpts 40 Spacing 0.05
REM Total runtime: 54736.4 s
REM Overall efficiency: 98.5833 %
REM
REM 4Ag2Se_CONSTCUT_NOSYM.cell (04f5f378ecb9f162ba8e0859c4ea5e99)
REM
REM compiler GCC version 4.9.2
REM options -cpp -iprefix /lustre/shared/ucl/apps/gcc/4.9.2/bin/../lib/gcc/x86_64-unknown-linux-gnu/4.9.2/ -mtune=corei7 -march=x86-64 -g -Og
REM COMMAND_LINE
REM seed -1679729878 441193974 224958382 -300604632 -749666119 1642549725 -287752836 832766284 1233894705 1965181569 1283703156 -1792632169
REM
REM Se 3|2.1|7|7|9|40:41:32(qc=5)
REM Ag 3|2.2|7|7|9|40U:50:41:42(qc=5)
REM 
CELL 1.54180    4.74134    7.26784    8.74278  132.63657   93.14723   92.31240
LATT -1
SFAC Se Ag 
Se     1 -0.4224877271165 -0.1148378741463  0.1649830122330 1.0
Se     1  0.2183608853324  0.2955466130776 -0.4066730816648 1.0
Se     1 -0.0595269467316 -0.1645450480373 -0.3234807670487 1.0
Se     1  0.3172872184230  0.4492567642295  0.2501204411162 1.0
Ag     2  0.2694640414742  0.3307761554831 -0.0997178910022 1.0
Ag     2  0.0688857062359 -0.0102847921996  0.0867630870993 1.0
Ag     2 -0.2562783783012  0.3649534321859  0.4297239498334 1.0
Ag     2 -0.2145157026700 -0.5185648668292 -0.1736513332826 1.0
Ag     2 -0.2349145809647  0.2701152365097  0.0351894782121 1.0
Ag     2 -0.4390726320312 -0.0353056466443 -0.4592553142041 1.0
Ag     2  0.0300332749909 -0.2263711344542  0.2732423673355 1.0
Ag     2  0.4573819413590 -0.2230174391749 -0.2183479486273 1.0
END
