TITL 4Ag2Se_CONSTCUT_NOSYM-200810-175306-72687f -0.0569 218.953809 -4.61185829E+004 0 0 12 (P-1) n - 1
REM
REM Run started: Tue, 11 Aug 2020 01:43:40 +0100 in /lustre/scratch/uccabz1/launch_tmp/launcher_2020-08-10-16-53-04-670182
REM CASTEP 20.1 from code version af48c487+ pr-geom-scf-spinfix Tue Jun 2 15:39:59 2020 +0100
REM Functional PBE for solids (2008) Relativity Koelling-Harmon Dispersion off
REM Cut-off 300.0000 eV Grid scale 2.0000 Gmax 26.6208 1/A FBSC none
REM MP grid 5 4 3 Offset 0.000 0.000 0.000 No. kpts 30 Spacing 0.05
REM Total runtime: 32910.1 s
REM Overall efficiency: 88.9167 %
REM
REM 4Ag2Se_CONSTCUT_NOSYM.cell (04f5f378ecb9f162ba8e0859c4ea5e99)
REM
REM compiler GCC version 4.9.2
REM options -cpp -iprefix /lustre/shared/ucl/apps/gcc/4.9.2/bin/../lib/gcc/x86_64-unknown-linux-gnu/4.9.2/ -mtune=corei7 -march=x86-64 -g -Og
REM COMMAND_LINE
REM seed 416950899 -1325066902 1569181442 1297395858 467856631 839716506 -70269948 240575000 46591374 524114153 -1716907385 747261628
REM
REM Se 3|2.1|7|7|9|40:41:32(qc=5)
REM Ag 3|2.2|7|7|9|40U:50:41:42(qc=5)
REM 
CELL 1.54180    4.15218    7.25590    8.16372   62.91493   89.17285   89.96479
LATT -1
SFAC Se Ag 
Se     1 -0.0237426422918 -0.1876797188484 -0.2383901963618 1.0
Se     1 -0.1528829055731  0.3169425909840  0.2639426942007 1.0
Se     1 -0.5321193070821  0.4136584657735 -0.2534069712095 1.0
Se     1  0.3388208110705 -0.0800229029321  0.2474153941209 1.0
Ag     2 -0.0775293750006  0.1943426377868  0.0002065831183 1.0
Ag     2  0.3793106609285 -0.5015671456257  0.3729437325072 1.0
Ag     2 -0.1271389766463 -0.3061589301254 -0.5060828965488 1.0
Ag     2 -0.5561770969575  0.0386278377702  0.5155099758015 1.0
Ag     2  0.3935400608805 -0.4626527236469  0.0096090045445 1.0
Ag     2 -0.1129970232656 -0.2586085586302  0.1285626374729 1.0
Ag     2 -0.0641016133625  0.2335434007970 -0.3638184255743 1.0
Ag     2 -0.5711797927001 -0.0091984533029 -0.1190054320716 1.0
END
