TITL 4Ag2Se_CONSTCUT-200811-083557-dbe1c3 0.0316 224.572271 -4.61179535E+004 0 0 12 (I-4) n - 1
REM
REM Run started: Tue, 11 Aug 2020 13:28:33 +0100 in /lustre/scratch/uccabz1/launch_tmp/launcher_2020-08-11-07-35-56-301959
REM CASTEP 20.1 from code version af48c487+ pr-geom-scf-spinfix Tue Jun 2 15:39:59 2020 +0100
REM Functional PBE for solids (2008) Relativity Koelling-Harmon Dispersion off
REM Cut-off 300.0000 eV Grid scale 2.0000 Gmax 26.6208 1/A FBSC none
REM MP grid 5 4 4 Offset 0.000 0.000 0.000 No. kpts 36 Spacing 0.05
REM Total runtime: 17900.8 s
REM Overall efficiency: 98 %
REM
REM 4Ag2Se_CONSTCUT.cell (097ebf1fd09fb02df10c18b5c3809341)
REM
REM compiler GCC version 4.9.2
REM options -cpp -iprefix /lustre/shared/ucl/apps/gcc/4.9.2/bin/../lib/gcc/x86_64-unknown-linux-gnu/4.9.2/ -mtune=corei7 -march=x86-64 -g -Og
REM COMMAND_LINE
REM seed -257046416 -1990600928 125710038 206801666 1826109553 858424380 -1855250658 1070183427 1214385776 2108933093 1694535926 -1901522088
REM
REM Se 3|2.1|7|7|9|40:41:32(qc=5)
REM Ag 3|2.2|7|7|9|40U:50:41:42(qc=5)
REM 
CELL 1.54180    5.34007    7.01308    7.01308   81.66565   67.62157   67.62157
LATT -1
SFAC Se Ag 
Se     1 -0.3172535822011  0.3965945354410  0.1656868852777 1.0
Se     1  0.2450278385176 -0.3965945354410 -0.1656868852777 1.0
Se     1  0.1515666969234  0.1656868852777 -0.3965945354410 1.0
Se     1 -0.0793409532399 -0.1656868852777  0.3965945354410 1.0
Ag     2 -0.4426175907931  0.0616584561491  0.2036034769069 1.0
Ag     2 -0.1773556577371 -0.0616584561491 -0.2036034769069 1.0
Ag     2  0.2390141138862  0.2036034769069 -0.0616584561491 1.0
Ag     2  0.3809591346440 -0.2036034769069  0.0616584561491 1.0
Ag     2 -0.1874490473589 -0.4460442163821 -0.2757029179894 1.0
Ag     2  0.0908038182695  0.4460442163821  0.2757029179894 1.0
Ag     2  0.4631519653484 -0.2757029179894  0.4460442163821 1.0
Ag     2 -0.3665067362590  0.2757029179894 -0.4460442163821 1.0
END
