TITL 4Ag2Se_CONSTCUT-200811-084713-968b92 0.0206 236.747628 -4.61183650E+004 0 0 12 (P-1) n - 1
REM
REM Run started: Tue, 11 Aug 2020 13:59:44 +0100 in /lustre/scratch/uccabz1/launch_tmp/launcher_2020-08-11-12-27-08-675215
REM CASTEP 20.1 from code version af48c487+ pr-geom-scf-spinfix Tue Jun 2 15:39:59 2020 +0100
REM Functional PBE for solids (2008) Relativity Koelling-Harmon Dispersion off
REM Cut-off 300.0000 eV Grid scale 2.0000 Gmax 26.6208 1/A FBSC none
REM MP grid 5 5 2 Offset 0.000 0.000 0.000 No. kpts 25 Spacing 0.05
REM Total runtime: 2149.53 s
REM Overall efficiency: 79.4 %
REM
REM
REM
REM compiler GCC version 4.9.2
REM options -cpp -iprefix /lustre/shared/ucl/apps/gcc/4.9.2/bin/../lib/gcc/x86_64-unknown-linux-gnu/4.9.2/ -mtune=corei7 -march=x86-64 -g -Og
REM COMMAND_LINE
REM seed -888106077 -603974548 -629516927 24546408 557667726 -1900410880 575125127 -784760468 221790723 -1740582725 -1651803861 -424879367
REM
REM Se 3|2.1|7|7|9|40:41:32(qc=5)
REM Ag 3|2.2|7|7|9|40U:50:41:42(qc=5)
REM 
CELL 1.54180    4.31952    4.98027   12.14034   65.93644   96.09209   89.54948
LATT -1
SFAC Se Ag 
Se     1  0.3296460248978 -0.2985763332878  0.1161582804940 1.0
Se     1 -0.3296460248978  0.2985763332878 -0.1161582804940 1.0
Se     1  0.3196786789596  0.0597381278641 -0.3833997508039 1.0
Se     1 -0.3196786789596 -0.0597381278641  0.3833997508039 1.0
Ag     2 -0.2337600319866 -0.2673824021300 -0.0484253422302 1.0
Ag     2  0.2337600319866  0.2673824021300  0.0484253422302 1.0
Ag     2 -0.1473376431102  0.1912259421743 -0.2914398445095 1.0
Ag     2  0.1473376431102 -0.1912259421743  0.2914398445095 1.0
Ag     2  0.2410990189640 -0.3731363048766 -0.4504490598105 1.0
Ag     2 -0.2410990189640  0.3731363048766  0.4504490598105 1.0
Ag     2  0.1309284041597 -0.3918808502314 -0.2102332640099 1.0
Ag     2 -0.1309284041597  0.3918808502314  0.2102332640099 1.0
END
