TITL 4Ag2Se_CONSTCUT-200811-073421-132429 0.0369 211.736933 -4.61178591E+004 0 0 12 (Iba2) n - 1
REM
REM Run started: Tue, 11 Aug 2020 08:38:39 +0100 in /lustre/scratch/uccabz1/launch_tmp/launcher_2020-08-11-06-34-19-896883
REM CASTEP 20.1 from code version af48c487+ pr-geom-scf-spinfix Tue Jun 2 15:39:59 2020 +0100
REM Functional PBE for solids (2008) Relativity Koelling-Harmon Dispersion off
REM Cut-off 300.0000 eV Grid scale 2.0000 Gmax 26.6208 1/A FBSC none
REM MP grid 5 4 4 Offset 0.000 0.000 0.000 No. kpts 26 Spacing 0.05
REM Total runtime: 3759.21 s
REM Overall efficiency: 71 %
REM
REM 4Ag2Se_CONSTCUT.cell (097ebf1fd09fb02df10c18b5c3809341)
REM
REM compiler GCC version 4.9.2
REM options -cpp -iprefix /lustre/shared/ucl/apps/gcc/4.9.2/bin/../lib/gcc/x86_64-unknown-linux-gnu/4.9.2/ -mtune=corei7 -march=x86-64 -g -Og
REM COMMAND_LINE
REM seed 962384555 918531698 1634712357 -892176769 -2012894222 1556090816 -238634596 -168085971 1617597592 -1497121594 -452611224 -511906055
REM
REM Se 3|2.1|7|7|9|40:41:32(qc=5)
REM Ag 3|2.2|7|7|9|40U:50:41:42(qc=5)
REM 
CELL 1.54180    5.05154    7.00730    7.00730   72.64545   68.87229   68.87229
LATT -1
SFAC Se Ag 
Se     1 -0.1222986758437  0.4746797326028  0.2736165170728 1.0
Se     1  0.1222986758437 -0.2736165170728 -0.4746797326028 1.0
Se     1  0.3740024261681 -0.0253202673972 -0.2263834829272 1.0
Se     1 -0.3740024261681  0.2263834829272  0.0253202673972 1.0
Ag     2  0.3668491593373 -0.3525634713453  0.1108003848886 1.0
Ag     2 -0.3668491593373 -0.1108003848886  0.3525634713453 1.0
Ag     2 -0.1250860728805  0.1474365286547 -0.3891996151114 1.0
Ag     2  0.1250860728805  0.3891996151114 -0.1474365286547 1.0
Ag     2 -0.1278095903105 -0.1959405357593 -0.0606289764632 1.0
Ag     2  0.1278095903105  0.0606289764632  0.1959405357593 1.0
Ag     2  0.3843791025330  0.3040594642407  0.4393710235368 1.0
Ag     2 -0.3843791025330 -0.4393710235368 -0.3040594642407 1.0
END
