TITL 4Ag2Se_CONSTCUT-200811-084553-21b131 -0.0161 222.109701 -4.61183425E+004 0 0 12 (Pc) n - 1
REM
REM Run started: Tue, 11 Aug 2020 13:09:46 +0100 in /lustre/scratch/uccabz1/launch_tmp/launcher_2020-08-11-07-45-51-334365
REM CASTEP 20.1 from code version af48c487+ pr-geom-scf-spinfix Tue Jun 2 15:39:59 2020 +0100
REM Functional PBE for solids (2008) Relativity Koelling-Harmon Dispersion off
REM Cut-off 300.0000 eV Grid scale 2.0000 Gmax 26.6208 1/A FBSC none
REM MP grid 4 4 3 Offset 0.000 0.000 0.000 No. kpts 16 Spacing 0.05
REM Total runtime: 16052.5 s
REM Overall efficiency: 97.5556 %
REM
REM 4Ag2Se_CONSTCUT.cell (097ebf1fd09fb02df10c18b5c3809341)
REM
REM compiler GCC version 4.9.2
REM options -cpp -iprefix /lustre/shared/ucl/apps/gcc/4.9.2/bin/../lib/gcc/x86_64-unknown-linux-gnu/4.9.2/ -mtune=corei7 -march=x86-64 -g -Og
REM COMMAND_LINE
REM seed -538933636 -1775610109 -347524406 -1378227801 -1327208789 -1793184030 282754539 -268661719 -1167893154 -1286919929 1204802703 1431298701
REM
REM Se 3|2.1|7|7|9|40:41:32(qc=5)
REM Ag 3|2.2|7|7|9|40U:50:41:42(qc=5)
REM 
CELL 1.54180    5.86790    5.41270    7.04870   90.00000   90.00000   97.20008
LATT -1
SFAC Se Ag 
Se     1 -0.0758648692761  0.1545099348313 -0.3022878367614 1.0
Se     1  0.4241351307239  0.1545099348313  0.3022878367614 1.0
Se     1 -0.0021259339776 -0.4501642580911  0.2713390750035 1.0
Se     1  0.4978740660224 -0.4501642580911 -0.2713390750035 1.0
Ag     2 -0.2252115774714 -0.2617273211369 -0.0000451918403 1.0
Ag     2  0.2747884225286 -0.2617273211369  0.0000451918403 1.0
Ag     2  0.3630125621577  0.0220606212123 -0.3303607633471 1.0
Ag     2 -0.1369874378423  0.0220606212123  0.3303607633471 1.0
Ag     2 -0.3616483962109  0.2071595971980 -0.0172844736200 1.0
Ag     2  0.1383516037891  0.2071595971980  0.0172844736200 1.0
Ag     2 -0.5262020852216 -0.3388615740135  0.3599654879887 1.0
Ag     2 -0.0262020852216 -0.3388615740135 -0.3599654879887 1.0
END
