TITL 4Ag2Se_CONSTCUT-200811-083329-6fd1ba -0.0296 226.581693 -4.61185231E+004 0 0 12 (R3m) n - 1
REM
REM Run started: Tue, 11 Aug 2020 09:38:27 +0100 in /lustre/scratch/uccabz1/launch_tmp/launcher_2020-08-11-07-33-27-855005
REM CASTEP 20.1 from code version af48c487+ pr-geom-scf-spinfix Tue Jun 2 15:39:59 2020 +0100
REM Functional PBE for solids (2008) Relativity Koelling-Harmon Dispersion off
REM Cut-off 300.0000 eV Grid scale 2.0000 Gmax 26.6208 1/A FBSC none
REM MP grid 4 4 4 Offset 0.000 0.000 0.000 No. kpts 12 Spacing 0.05
REM Total runtime: 3963.27 s
REM Overall efficiency: 83.6667 %
REM
REM 4Ag2Se_CONSTCUT.cell (097ebf1fd09fb02df10c18b5c3809341)
REM
REM compiler GCC version 4.9.2
REM options -cpp -iprefix /lustre/shared/ucl/apps/gcc/4.9.2/bin/../lib/gcc/x86_64-unknown-linux-gnu/4.9.2/ -mtune=corei7 -march=x86-64 -g -Og
REM COMMAND_LINE
REM seed 757595655 -445272134 1755486044 1710772883 1102805233 1958818729 -1824431574 -750694119 -888962830 -883304275 -22603896 -774200711
REM
REM Se 3|2.1|7|7|9|40:41:32(qc=5)
REM Ag 3|2.2|7|7|9|40U:50:41:42(qc=5)
REM 
CELL 1.54180    6.09644    6.09644    6.09644   90.13244   90.13244   90.13244
LATT -1
SFAC Se Ag 
Se     1  0.4235160137054 -0.0424569866590 -0.0436815895060 1.0
Se     1 -0.0436815895060  0.4235160137054 -0.0424569866590 1.0
Se     1 -0.0424569866590 -0.0436815895060  0.4235160137054 1.0
Se     1  0.4171540913582  0.4171540913582  0.4171540913582 1.0
Ag     2 -0.0256535408797  0.3981733899076  0.4020651228956 1.0
Ag     2  0.4020651228956 -0.0256535408797  0.3981733899076 1.0
Ag     2  0.3981733899076  0.4020651228956 -0.0256535408797 1.0
Ag     2 -0.3088405059329 -0.3118820849831  0.1872969197995 1.0
Ag     2  0.1872969197995 -0.3088405059329 -0.3118820849831 1.0
Ag     2 -0.3118820849831  0.1872969197995 -0.3088405059329 1.0
Ag     2 -0.3156805431886 -0.3156805431886 -0.3156805431886 1.0
Ag     2 -0.0175600865170 -0.0175600865170 -0.0175600865170 1.0
END
