TITL 4Ag2Se_CONSTCUT_NOSYM-200810-213019-48d08c 0.0092 222.009854 -4.61185225E+004 0 0 12 (P1) n - 1
REM
REM Run started: Tue, 11 Aug 2020 07:32:39 +0100 in /lustre/scratch/uccabz1/launch_tmp/launcher_2020-08-10-20-30-17-887112
REM CASTEP 20.1 from code version af48c487+ pr-geom-scf-spinfix Tue Jun 2 15:39:59 2020 +0100
REM Functional PBE for solids (2008) Relativity Koelling-Harmon Dispersion off
REM Cut-off 300.0000 eV Grid scale 2.0000 Gmax 26.6208 1/A FBSC none
REM MP grid 4 5 4 Offset 0.000 0.000 0.000 No. kpts 40 Spacing 0.05
REM Total runtime: 36333.8 s
REM Overall efficiency: 97.6 %
REM
REM 4Ag2Se_CONSTCUT_NOSYM.cell (04f5f378ecb9f162ba8e0859c4ea5e99)
REM
REM compiler GCC version 4.9.2
REM options -cpp -iprefix /lustre/shared/ucl/apps/gcc/4.9.2/bin/../lib/gcc/x86_64-unknown-linux-gnu/4.9.2/ -mtune=corei7 -march=x86-64 -g -Og
REM COMMAND_LINE
REM seed -2129750309 1104966111 1208313253 -117736332 -950133218 1601150851 -1746507467 1025137613 849098679 -1668427911 328391068 -1264809606
REM
REM Se 3|2.1|7|7|9|40:41:32(qc=5)
REM Ag 3|2.2|7|7|9|40U:50:41:42(qc=5)
REM 
CELL 1.54180    6.90665    6.76017    6.55490  109.72114   98.33054  122.36657
LATT -1
SFAC Se Ag 
Se     1 -0.6660300713090 -0.3092722549793 -0.2089971213093 1.0
Se     1  0.0997680390924  0.1049763053326 -0.0650926588219 1.0
Se     1  0.5217016456464  0.1330078060580  0.3929056313824 1.0
Se     1 -0.2491116624214  0.7145279925168  0.2417754439207 1.0
Ag     2  0.3737480477048  0.5372027976252  0.3796446100441 1.0
Ag     2 -0.1627648487533  0.1336287477844  0.1849649245164 1.0
Ag     2 -0.7933513855719 -0.8186750917000 -0.4366319466059 1.0
Ag     2 -0.4617897635286  0.2052979382541 -0.0666629908062 1.0
Ag     2  1.0107979809366  0.6517276535509  0.5007504226971 1.0
Ag     2  0.0938249059931 -0.3863337394065  0.0855353590249 1.0
Ag     2 -0.2093206298035  0.1070503086204 -0.3295514611623 1.0
Ag     2 -0.2755459579856 -0.4002079636566 -0.2165026128800 1.0
END
