TITL 4Ag2Se_CONSTCUT_NOSYM-200810-195346-2e0f97 0.0278 217.748241 -4.61183964E+004 0 0 12 (P1) n - 1
REM
REM Run started: Tue, 11 Aug 2020 04:02:08 +0100 in /lustre/scratch/uccabz1/launch_tmp/launcher_2020-08-10-18-53-45-175604
REM CASTEP 20.1 from code version af48c487+ pr-geom-scf-spinfix Tue Jun 2 15:39:59 2020 +0100
REM Functional PBE for solids (2008) Relativity Koelling-Harmon Dispersion off
REM Cut-off 300.0000 eV Grid scale 2.0000 Gmax 26.6208 1/A FBSC none
REM MP grid 5 5 2 Offset 0.000 0.000 0.000 No. kpts 25 Spacing 0.05
REM Total runtime: 29381 s
REM Overall efficiency: 83.0769 %
REM
REM 4Ag2Se_CONSTCUT_NOSYM.cell (04f5f378ecb9f162ba8e0859c4ea5e99)
REM
REM compiler GCC version 4.9.2
REM options -cpp -iprefix /lustre/shared/ucl/apps/gcc/4.9.2/bin/../lib/gcc/x86_64-unknown-linux-gnu/4.9.2/ -mtune=corei7 -march=x86-64 -g -Og
REM COMMAND_LINE
REM seed 471568541 -835690637 469479509 802482052 -878681599 736802971 1936282968 991252549 -391071321 2017933831 -1838150556 608346690
REM
REM Se 3|2.1|7|7|9|40:41:32(qc=5)
REM Ag 3|2.2|7|7|9|40U:50:41:42(qc=5)
REM 
CELL 1.54180    4.71267    4.69944   11.50690   95.60184   83.57156   60.85323
LATT -1
SFAC Se Ag 
Se     1 -0.2981654286126  0.4106379735906  0.0573962892816 1.0
Se     1  0.3122758115611 -0.1909599775651 -0.1945820189207 1.0
Se     1 -0.5740529073805  0.1995700561236 -0.4418919089659 1.0
Se     1  0.0611523472229 -0.4498710196388  0.3078877506289 1.0
Ag     2 -0.5697678647794 -0.1027105007883  0.2539460331987 1.0
Ag     2  0.0185145078914 -0.1951952052626  0.1040813215519 1.0
Ag     2 -0.2220825384785 -0.4377559835346 -0.3964292125209 1.0
Ag     2 -0.2875884992228  0.2680880674560  0.3550771729193 1.0
Ag     2 -0.2854930420759  0.1260294699272 -0.2451475609335 1.0
Ag     2  0.4039134694191  0.0843885198330  0.0031144438739 1.0
Ag     2  0.1575471436504 -0.1515053540289 -0.4995272950908 1.0
Ag     2 -0.0165451991951  0.5121622538878 -0.1411288150225 1.0
END
