TITL 4Ag2Se_CONSTCUT_NOSYM-200811-012850-3ef5ae -0.0273 216.530603 -4.61186077E+004 0 0 12 (P-1) n - 1
REM
REM Run started: Tue, 11 Aug 2020 07:10:22 +0100 in /lustre/scratch/uccabz1/launch_tmp/launcher_2020-08-11-00-28-48-815248
REM CASTEP 20.1 from code version af48c487+ pr-geom-scf-spinfix Tue Jun 2 15:39:59 2020 +0100
REM Functional PBE for solids (2008) Relativity Koelling-Harmon Dispersion off
REM Cut-off 300.0000 eV Grid scale 2.0000 Gmax 26.6208 1/A FBSC none
REM MP grid 4 4 4 Offset 0.000 0.000 0.000 No. kpts 32 Spacing 0.05
REM Total runtime: 20632.4 s
REM Overall efficiency: 97.625 %
REM
REM 4Ag2Se_CONSTCUT_NOSYM.cell (04f5f378ecb9f162ba8e0859c4ea5e99)
REM
REM compiler GCC version 4.9.2
REM options -cpp -iprefix /lustre/shared/ucl/apps/gcc/4.9.2/bin/../lib/gcc/x86_64-unknown-linux-gnu/4.9.2/ -mtune=corei7 -march=x86-64 -g -Og
REM COMMAND_LINE
REM seed -1600875703 -758990729 1447695351 819071365 -1360056188 163941622 842295339 1297992164 -1194760358 -1761740461 1461184155 -1041091724
REM
REM Se 3|2.1|7|7|9|40:41:32(qc=5)
REM Ag 3|2.2|7|7|9|40U:50:41:42(qc=5)
REM 
CELL 1.54180    5.70325    5.82777    7.28251   99.11531  114.68489   90.10089
LATT -1
SFAC Se Ag 
Se     1 -0.0008471185322  0.2695366505380  0.3310294129295 1.0
Se     1  0.3089182989934  0.3201214085963 -0.0789697860536 1.0
Se     1 -0.1900599287395 -0.1798594702978 -0.0784927725049 1.0
Se     1 -0.5027288251536 -0.2306642393113  0.3306470783019 1.0
Ag     2  0.4027134725228  0.0434564345283 -0.3729330875822 1.0
Ag     2  0.3271259105939 -0.1503546745145 -0.0522029817845 1.0
Ag     2 -0.0953756021602 -0.4529754819771 -0.3750620852250 1.0
Ag     2  0.4058394447224  0.5431459619136 -0.3732143133328 1.0
Ag     2 -0.1730988150482  0.3495345568052 -0.0529244376304 1.0
Ag     2  0.4804395594424  0.2404019989426  0.3045948116244 1.0
Ag     2 -0.0192980322534 -0.2591505228855  0.3042663684646 1.0
Ag     2 -0.0976199643876  0.0473697776622 -0.3749488072071 1.0
END
