TITL 4Ag2Se_CONSTCUT_NOSYM-200810-163559-8791a8 0.0665 217.841366 -4.61184935E+004 0 0 12 (P1) n - 1
REM
REM Run started: Tue, 11 Aug 2020 08:47:46 +0100 in /lustre/scratch/uccabz1/launch_tmp/launcher_2020-08-10-15-35-57-926733
REM CASTEP 20.1 from code version af48c487+ pr-geom-scf-spinfix Tue Jun 2 15:39:59 2020 +0100
REM Functional PBE for solids (2008) Relativity Koelling-Harmon Dispersion off
REM Cut-off 300.0000 eV Grid scale 2.0000 Gmax 26.6208 1/A FBSC none
REM MP grid 7 4 3 Offset 0.000 0.000 0.000 No. kpts 42 Spacing 0.05
REM Total runtime: 65838.8 s
REM Overall efficiency: 98.6667 %
REM
REM 4Ag2Se_CONSTCUT_NOSYM.cell (04f5f378ecb9f162ba8e0859c4ea5e99)
REM
REM compiler GCC version 4.9.2
REM options -cpp -iprefix /lustre/shared/ucl/apps/gcc/4.9.2/bin/../lib/gcc/x86_64-unknown-linux-gnu/4.9.2/ -mtune=corei7 -march=x86-64 -g -Og
REM COMMAND_LINE
REM seed 589853069 -1330212336 1490315062 524787663 -995695957 811839062 -665980379 -489323488 -1359261465 -14680229 1805313149 -230016296
REM
REM Se 3|2.1|7|7|9|40:41:32(qc=5)
REM Ag 3|2.2|7|7|9|40U:50:41:42(qc=5)
REM 
CELL 1.54180    4.35061    7.14458    9.71965   77.43672   63.60126   53.76274
LATT -1
SFAC Se Ag 
Se     1  0.2068518595489  0.1131757363362 -0.3704389434872 1.0
Se     1  0.2878228868985  0.1893236164985  0.1322159855679 1.0
Se     1 -0.4216969479948 -0.3618135067482 -0.0672081792622 1.0
Se     1  0.2164256754519 -0.4231989182337  0.3361907359075 1.0
Ag     2 -0.2041248291621 -0.3057787672844  0.1417427767309 1.0
Ag     2 -0.0040684842483  0.1446510992040 -0.0466959798529 1.0
Ag     2 -0.2313830237606  0.0381107901582  0.2849522860982 1.0
Ag     2 -0.1707943528627 -0.3850370799593 -0.3666355800161 1.0
Ag     2 -0.2158165222860  0.3329262658462  0.4561401670990 1.0
Ag     2 -0.1058837364654 -0.1174909529612 -0.1907320909482 1.0
Ag     2  0.3994161149658  0.3842169410178 -0.2033609446121 1.0
Ag     2  0.2773790599149 -0.1667601238742  0.4654118667752 1.0
END
