TITL 4Ag2Se_CONSTCUT-200811-145659-50bf50 0.0058 245.352862 -4.61177321E+004 0 0 12 (P2) n - 1
REM
REM Run started: Tue, 11 Aug 2020 18:33:59 +0100 in /lustre/scratch/uccabz1/launch_tmp/launcher_2020-08-11-13-56-56-336563
REM CASTEP 20.1 from code version af48c487+ pr-geom-scf-spinfix Tue Jun 2 15:39:59 2020 +0100
REM Functional PBE for solids (2008) Relativity Koelling-Harmon Dispersion off
REM Cut-off 300.0000 eV Grid scale 2.0000 Gmax 26.6208 1/A FBSC none
REM MP grid 5 4 3 Offset 0.000 0.000 0.000 No. kpts 16 Spacing 0.05
REM Total runtime: 13124.2 s
REM Overall efficiency: 93.7778 %
REM
REM 4Ag2Se_CONSTCUT.cell (097ebf1fd09fb02df10c18b5c3809341)
REM
REM compiler GCC version 4.9.2
REM options -cpp -iprefix /lustre/shared/ucl/apps/gcc/4.9.2/bin/../lib/gcc/x86_64-unknown-linux-gnu/4.9.2/ -mtune=corei7 -march=x86-64 -g -Og
REM COMMAND_LINE
REM seed -1207193069 -1495857584 2073842561 770935818 1055833194 -955602032 1653158336 384628076 -432990100 -1724287488 483462582 -805221849
REM
REM Se 3|2.1|7|7|9|40:41:32(qc=5)
REM Ag 3|2.2|7|7|9|40U:50:41:42(qc=5)
REM 
CELL 1.54180    4.63112    5.80471    9.12785   90.00000   90.81469   90.00000
LATT -1
SFAC Se Ag 
Se     1 -0.2352061574778 -0.2782988161025  0.1775475812960 1.0
Se     1  0.2352061574778 -0.2782988161025 -0.1775475812960 1.0
Se     1 -0.2589935945527  0.2316402612125 -0.3451368789529 1.0
Se     1  0.2589935945527  0.2316402612125  0.3451368789529 1.0
Ag     2 -0.2547250034568  0.4599004383094 -0.0911636971953 1.0
Ag     2  0.2547250034568  0.4599004383094  0.0911636971953 1.0
Ag     2 -0.2416850585036  0.1953359337265  0.1779074105830 1.0
Ag     2  0.2416850585036  0.1953359337265 -0.1779074105830 1.0
Ag     2  0.7489804283247 -0.5049775298553  0.4202762550031 1.0
Ag     2 -0.7489804283247 -0.5049775298553 -0.4202762550031 1.0
Ag     2  0.2582002904355 -0.0470664872907  0.1015003475282 1.0
Ag     2 -0.2582002904355 -0.0470664872907 -0.1015003475282 1.0
END
