TITL 4Ag2Se_CONSTCUT-200811-080242-fb5c3e 0.0187 219.877534 -4.61183863E+004 0 0 12 (C2/c) n - 1
REM
REM Run started: Tue, 11 Aug 2020 09:36:06 +0100 in /lustre/scratch/uccabz1/launch_tmp/launcher_2020-08-11-07-02-40-227787
REM CASTEP 20.1 from code version af48c487+ pr-geom-scf-spinfix Tue Jun 2 15:39:59 2020 +0100
REM Functional PBE for solids (2008) Relativity Koelling-Harmon Dispersion off
REM Cut-off 300.0000 eV Grid scale 2.0000 Gmax 26.6208 1/A FBSC none
REM MP grid 5 4 4 Offset 0.000 0.000 0.000 No. kpts 26 Spacing 0.05
REM Total runtime: 5673.94 s
REM Overall efficiency: 72 %
REM
REM 4Ag2Se_CONSTCUT.cell (097ebf1fd09fb02df10c18b5c3809341)
REM
REM compiler GCC version 4.9.2
REM options -cpp -iprefix /lustre/shared/ucl/apps/gcc/4.9.2/bin/../lib/gcc/x86_64-unknown-linux-gnu/4.9.2/ -mtune=corei7 -march=x86-64 -g -Og
REM COMMAND_LINE
REM seed 1780202901 -1405513577 783170008 -1040389109 -1153052087 -482041084 1173359226 526448366 -1532038565 -1226824500 -910423279 -176899842
REM
REM Se 3|2.1|7|7|9|40:41:32(qc=5)
REM Ag 3|2.2|7|7|9|40U:50:41:42(qc=5)
REM 
CELL 1.54180    4.58132    8.19075    8.19075   49.72300   71.62265   71.62265
LATT -1
SFAC Se Ag 
Se     1  0.5863302711909 -0.4193330627687  0.2114295981068 1.0
Se     1 -0.0863302711909 -0.2114295981068  0.4193330627687 1.0
Se     1 -0.5863302711909  0.4193330627687 -0.2114295981068 1.0
Se     1  0.0863302711909  0.2114295981068 -0.4193330627687 1.0
Ag     2  0.0591551616883 -0.1977046716248  0.0295436361797 1.0
Ag     2 -0.5591551616883 -0.0295436361797  0.1977046716248 1.0
Ag     2 -0.0591551616883  0.1977046716248 -0.0295436361797 1.0
Ag     2  0.5591551616883  0.0295436361797 -0.1977046716248 1.0
Ag     2  0.7630446713114 -0.3828992183006 -0.1431719263579 1.0
Ag     2 -0.2630446713114  0.1431719263579  0.3828992183006 1.0
Ag     2 -0.7630446713114  0.3828992183006  0.1431719263579 1.0
Ag     2  0.2630446713114 -0.1431719263579 -0.3828992183006 1.0
END
