TITL 4Ag2Se_CONSTCUT_NOSYM-200811-022216-4b4b42 -0.0308 231.259864 -4.61181225E+004 0 0 12 (P1) n - 1
REM
REM Run started: Tue, 11 Aug 2020 08:42:30 +0100 in /lustre/scratch/uccabz1/launch_tmp/launcher_2020-08-11-01-22-13-912629
REM CASTEP 20.1 from code version af48c487+ pr-geom-scf-spinfix Tue Jun 2 15:39:59 2020 +0100
REM Functional PBE for solids (2008) Relativity Koelling-Harmon Dispersion off
REM Cut-off 300.0000 eV Grid scale 2.0000 Gmax 26.6208 1/A FBSC none
REM MP grid 5 4 3 Offset 0.000 0.000 0.000 No. kpts 30 Spacing 0.05
REM Total runtime: 22944.7 s
REM Overall efficiency: 96.7778 %
REM
REM 4Ag2Se_CONSTCUT_NOSYM.cell (04f5f378ecb9f162ba8e0859c4ea5e99)
REM
REM compiler GCC version 4.9.2
REM options -cpp -iprefix /lustre/shared/ucl/apps/gcc/4.9.2/bin/../lib/gcc/x86_64-unknown-linux-gnu/4.9.2/ -mtune=corei7 -march=x86-64 -g -Og
REM COMMAND_LINE
REM seed -2015369361 -1578270371 -1031473266 -2081010989 -416803058 -1197685311 586954555 -1011733059 1820312931 629670924 33040550 1345018439
REM
REM Se 3|2.1|7|7|9|40:41:32(qc=5)
REM Ag 3|2.2|7|7|9|40U:50:41:42(qc=5)
REM 
CELL 1.54180    4.64273    5.73771    8.70249   92.36256   90.57772   86.81276
LATT -1
SFAC Se Ag 
Se     1 -0.3514598794132  0.1675264386936  0.3485161495554 1.0
Se     1  0.0735558967834 -0.2663561516124 -0.3082555021538 1.0
Se     1  0.4739398239565  0.2257913287449 -0.1051548487001 1.0
Se     1 -0.0838293745668 -0.3020815757824  0.1225738863745 1.0
Ag     2 -0.4290018580687 -0.3035647627290 -0.1261059165971 1.0
Ag     2 -0.0299541095543  0.2666617322368 -0.2385765431514 1.0
Ag     2 -0.4943776704437  0.0288599658361 -0.3835788875170 1.0
Ag     2  0.4076782372377  0.4880059984327  0.1736316473363 1.0
Ag     2  0.6094259903140 -0.4522320310029 -0.4501810600497 1.0
Ag     2  0.1313692364631  0.3301784601180  0.4407905810236 1.0
Ag     2  0.3211762117922 -0.0174249554399  0.1208104824662 1.0
Ag     2  0.0935621954999 -0.1840256474956  0.4009711114131 1.0
END
