TITL 4Ag2Se_CONSTCUT-200811-070039-c44d27 0.0069 227.431882 -4.61175143E+004 0 0 12 (P3) n - 1
REM
REM Run started: Tue, 11 Aug 2020 09:22:49 +0100 in /lustre/scratch/uccabz1/launch_tmp/launcher_2020-08-11-06-00-38-259565
REM CASTEP 20.1 from code version af48c487+ pr-geom-scf-spinfix Tue Jun 2 15:39:59 2020 +0100
REM Functional PBE for solids (2008) Relativity Koelling-Harmon Dispersion off
REM Cut-off 300.0000 eV Grid scale 2.0000 Gmax 26.6208 1/A FBSC none
REM MP grid 4 4 4 Offset 0.000 0.000 0.000 No. kpts 32 Spacing 0.05
REM Total runtime: 8674.65 s
REM Overall efficiency: 96.8333 %
REM
REM 4Ag2Se_CONSTCUT.cell (097ebf1fd09fb02df10c18b5c3809341)
REM
REM compiler GCC version 4.9.2
REM options -cpp -iprefix /lustre/shared/ucl/apps/gcc/4.9.2/bin/../lib/gcc/x86_64-unknown-linux-gnu/4.9.2/ -mtune=corei7 -march=x86-64 -g -Og
REM COMMAND_LINE
REM seed -1320292400 -1839775753 1794544485 -1062483022 -682857929 488296663 -807385209 -173335047 1885844503 -515638402 865222786 1891914204
REM
REM Se 3|2.1|7|7|9|40:41:32(qc=5)
REM Ag 3|2.2|7|7|9|40U:50:41:42(qc=5)
REM 
CELL 1.54180    5.30597    7.03522    7.03522  120.00000   90.00000   90.00000
LATT -1
SFAC Se Ag 
Se     1 -0.0609390495918 -0.4008750383036 -0.0467043998255 1.0
Se     1 -0.0609390495918  0.3541705384781  0.4008750383036 1.0
Se     1 -0.0609390495918  0.0467043998255 -0.3541705384781 1.0
Se     1  0.4669021361910 -0.0000000333333  0.0000000333333 1.0
Ag     2  0.4572591241276 -0.4282554069519 -0.1140440994301 1.0
Ag     2  0.4572591241276  0.3142112075218  0.4282554069519 1.0
Ag     2  0.4572591241276  0.1140440994301 -0.3142112075218 1.0
Ag     2  0.2239271156243 -0.2872347219742 -0.4041288226232 1.0
Ag     2  0.2239271156243 -0.1168942006490  0.2872347219742 1.0
Ag     2  0.2239271156243  0.4041288226232  0.1168942006490 1.0
Ag     2 -0.0421210071710 -0.0000000333333  0.0000000333333 1.0
Ag     2 -0.3163259995002 -0.3333333666667  0.3333333666667 1.0
END
