TITL 4Ag2Se_CONSTCUT-200811-064846-8d2642 -0.0059 236.873054 -4.61182418E+004 0 0 12 (R3) n - 1
REM
REM Run started: Tue, 11 Aug 2020 07:49:08 +0100 in /lustre/scratch/uccabz1/launch_tmp/launcher_2020-08-11-05-48-43-526713
REM CASTEP 20.1 from code version af48c487+ pr-geom-scf-spinfix Tue Jun 2 15:39:59 2020 +0100
REM Functional PBE for solids (2008) Relativity Koelling-Harmon Dispersion off
REM Cut-off 300.0000 eV Grid scale 2.0000 Gmax 26.6208 1/A FBSC none
REM MP grid 4 4 4 Offset 0.000 0.000 0.000 No. kpts 12 Spacing 0.05
REM Total runtime: 3691.13 s
REM Overall efficiency: 83.8333 %
REM
REM 4Ag2Se_CONSTCUT.cell (097ebf1fd09fb02df10c18b5c3809341)
REM
REM compiler GCC version 4.9.2
REM options -cpp -iprefix /lustre/shared/ucl/apps/gcc/4.9.2/bin/../lib/gcc/x86_64-unknown-linux-gnu/4.9.2/ -mtune=corei7 -march=x86-64 -g -Og
REM COMMAND_LINE
REM seed -703182982 793393469 358254833 665594818 1622723280 -1171274419 1075428224 -1185004415 318673889 -222694194 -1325379822 -2031367248
REM
REM Se 3|2.1|7|7|9|40:41:32(qc=5)
REM Ag 3|2.2|7|7|9|40U:50:41:42(qc=5)
REM 
CELL 1.54180    6.18737    6.18737    6.18737   89.88706   89.88706   89.88706
LATT -1
SFAC Se Ag 
Se     1 -0.4747518758857  0.4173360393838 -0.0084403662064 1.0
Se     1  0.4173360393838 -0.0084403662064 -0.4747518758857 1.0
Se     1 -0.0084403662064 -0.4747518758857  0.4173360393838 1.0
Se     1 -0.0932328419033 -0.0932328419033 -0.0932328419033 1.0
Ag     2 -0.2190549316549  0.2266197026022 -0.3508792563203 1.0
Ag     2  0.2266197026022 -0.3508792563203 -0.2190549316549 1.0
Ag     2 -0.3508792563203 -0.2190549316549  0.2266197026022 1.0
Ag     2  0.1942511344144  0.2054334398285 -0.1330029896448 1.0
Ag     2  0.2054334398285 -0.1330029896448  0.1942511344144 1.0
Ag     2 -0.1330029896448  0.1942511344144  0.2054334398285 1.0
Ag     2  0.4022717315367  0.4022717315367  0.4022717315367 1.0
Ag     2 -0.3381906861502 -0.3381906861502 -0.3381906861502 1.0
END
