TITL 4Ag2Se_CONSTCUT_NOSYM-200811-030318-6459c4 0.0996 218.123129 -4.61184089E+004 0 0 12 (P1) n - 1
REM
REM Run started: Tue, 11 Aug 2020 13:21:00 +0100 in /lustre/scratch/uccabz1/launch_tmp/launcher_2020-08-11-02-03-16-989445
REM CASTEP 20.1 from code version af48c487+ pr-geom-scf-spinfix Tue Jun 2 15:39:59 2020 +0100
REM Functional PBE for solids (2008) Relativity Koelling-Harmon Dispersion off
REM Cut-off 300.0000 eV Grid scale 2.0000 Gmax 26.6208 1/A FBSC none
REM MP grid 6 3 3 Offset 0.000 0.000 0.000 No. kpts 27 Spacing 0.05
REM Total runtime: 40548.3 s
REM Overall efficiency: 98.5 %
REM
REM 4Ag2Se_CONSTCUT_NOSYM.cell (04f5f378ecb9f162ba8e0859c4ea5e99)
REM
REM compiler GCC version 4.9.2
REM options -cpp -iprefix /lustre/shared/ucl/apps/gcc/4.9.2/bin/../lib/gcc/x86_64-unknown-linux-gnu/4.9.2/ -mtune=corei7 -march=x86-64 -g -Og
REM COMMAND_LINE
REM seed 1064486128 607019215 314138883 -2048666751 442254731 -1646960809 -1602249663 -1621234295 -669293188 501598552 697357738 -1105733611
REM
REM Se 3|2.1|7|7|9|40:41:32(qc=5)
REM Ag 3|2.2|7|7|9|40U:50:41:42(qc=5)
REM 
CELL 1.54180    4.10077    6.84476    8.02401   90.79985   75.59677   90.02367
LATT -1
SFAC Se Ag 
Se     1  0.4578201204549 -0.1460256067667  0.2176872773492 1.0
Se     1  0.1565545063896  0.3896348535420 -0.1528919711882 1.0
Se     1 -0.0900580256800  0.2600633908030  0.3080571155428 1.0
Se     1 -0.2988964755677 -0.0061277965105 -0.2437618015756 1.0
Ag     2  0.0699642272085 -0.0436610191105  0.0021522359019 1.0
Ag     2 -0.3869688600194 -0.3649441489804 -0.0594467423036 1.0
Ag     2 -0.1466062821679 -0.1803633742483  0.4378664903467 1.0
Ag     2  0.2358701249846 -0.2643284632881 -0.3185204279868 1.0
Ag     2  0.3878248276856  0.5129248415270  0.3545632782756 1.0
Ag     2  0.5364177940469  0.2491356185196  0.0656172692385 1.0
Ag     2  0.3038023694081  0.1341527053486 -0.4645594077028 1.0
Ag     2 -0.2340472267430 -0.5586295008357 -0.3901550158977 1.0
END
