TITL 4Ag2Se_CONSTCUT_NOSYM-200810-181932-92c679 0.0251 227.198932 -4.61182722E+004 0 0 12 (P1) n - 1
REM
REM Run started: Tue, 11 Aug 2020 04:07:26 +0100 in /lustre/scratch/uccabz1/launch_tmp/launcher_2020-08-10-17-19-30-444011
REM CASTEP 20.1 from code version af48c487+ pr-geom-scf-spinfix Tue Jun 2 15:39:59 2020 +0100
REM Functional PBE for solids (2008) Relativity Koelling-Harmon Dispersion off
REM Cut-off 300.0000 eV Grid scale 2.0000 Gmax 26.6208 1/A FBSC none
REM MP grid 5 4 3 Offset 0.000 0.000 0.000 No. kpts 30 Spacing 0.05
REM Total runtime: 35417.3 s
REM Overall efficiency: 98 %
REM
REM 4Ag2Se_CONSTCUT_NOSYM.cell (04f5f378ecb9f162ba8e0859c4ea5e99)
REM
REM compiler GCC version 4.9.2
REM options -cpp -iprefix /lustre/shared/ucl/apps/gcc/4.9.2/bin/../lib/gcc/x86_64-unknown-linux-gnu/4.9.2/ -mtune=corei7 -march=x86-64 -g -Og
REM COMMAND_LINE
REM seed 1765828493 -305330702 -2030637952 341676493 -1527577182 965857012 -177089115 -834382102 -323214613 -1446966659 1465435898 2108485280
REM
REM Se 3|2.1|7|7|9|40:41:32(qc=5)
REM Ag 3|2.2|7|7|9|40U:50:41:42(qc=5)
REM 
CELL 1.54180    5.03744    6.58776    7.50582   71.69418   74.41599   88.92270
LATT -1
SFAC Se Ag 
Se     1 -0.2026254423966 -0.4062923351874 -0.1059323440698 1.0
Se     1  0.4500969996580 -0.2494709304518  0.4594784999601 1.0
Se     1  0.3195275376374  0.1116502966203 -0.0248519048521 1.0
Se     1  0.1171816444320  0.2809536506351  0.3492766625097 1.0
Ag     2  0.3454595522238 -0.3304714731356  0.1247259808155 1.0
Ag     2 -0.2259380037092 -0.0351893130017 -0.4040233841991 1.0
Ag     2 -0.1381346211411  0.2215966845813 -0.1790259713195 1.0
Ag     2 -0.0729352331064 -0.4170890308502 -0.5045181540172 1.0
Ag     2 -0.3373467842253  0.2320614156167  0.2309679540926 1.0
Ag     2  0.2169908724762 -0.1259142938708 -0.2279202405785 1.0
Ag     2  0.4251498468443  0.3192304080004 -0.4042974951237 1.0
Ag     2 -0.1564497686931 -0.1468864789563  0.1369220967821 1.0
END
