TITL 4Ag2Se_CONSTCUT_NOSYM-200810-165542-9d25f0 -0.0253 215.549281 -4.61180368E+004 0 0 12 (P1) n - 1
REM
REM Run started: Tue, 11 Aug 2020 02:31:09 +0100 in /lustre/scratch/uccabz1/launch_tmp/launcher_2020-08-10-15-55-41-106202
REM CASTEP 20.1 from code version af48c487+ pr-geom-scf-spinfix Tue Jun 2 15:39:59 2020 +0100
REM Functional PBE for solids (2008) Relativity Koelling-Harmon Dispersion off
REM Cut-off 300.0000 eV Grid scale 2.0000 Gmax 26.6208 1/A FBSC none
REM MP grid 6 4 3 Offset 0.000 0.000 0.000 No. kpts 36 Spacing 0.05
REM Total runtime: 34666.9 s
REM Overall efficiency: 97.5455 %
REM
REM 4Ag2Se_CONSTCUT_NOSYM.cell (04f5f378ecb9f162ba8e0859c4ea5e99)
REM
REM compiler GCC version 4.9.2
REM options -cpp -iprefix /lustre/shared/ucl/apps/gcc/4.9.2/bin/../lib/gcc/x86_64-unknown-linux-gnu/4.9.2/ -mtune=corei7 -march=x86-64 -g -Og
REM COMMAND_LINE
REM seed -2052097708 269481523 -211884352 2093221981 1038333135 655027314 1353046172 801586034 -1895767517 -1447076056 1231376709 1256342152
REM
REM Se 3|2.1|7|7|9|40:41:32(qc=5)
REM Ag 3|2.2|7|7|9|40U:50:41:42(qc=5)
REM 
CELL 1.54180    3.96412    6.65685    8.80102   98.74078  102.81367  103.06503
LATT -1
SFAC Se Ag 
Se     1  0.1959037169948 -0.4230254298104  0.0758426102591 1.0
Se     1  0.3742762271626 -0.0664751022652 -0.1410935936340 1.0
Se     1 -0.3494570874865 -0.2629208284928 -0.4398509678694 1.0
Se     1  0.2353383957308  0.2515231797242  0.3474693677103 1.0
Ag     2 -0.4135515212095 -0.4653712955124 -0.1741542855575 1.0
Ag     2 -0.3884706282901  0.2720990143645  0.1057624924852 1.0
Ag     2 -0.3898755274989 -0.0393830165389  0.3291567166562 1.0
Ag     2 -0.0314400646153 -0.0687186078168  0.0822802234810 1.0
Ag     2 -0.0111974855738 -0.3536985080867  0.3437925409491 1.0
Ag     2 -0.0752268635714  0.4036763415605 -0.4166288145614 1.0
Ag     2  0.2980871749545  0.0802113922650 -0.4019534965392 1.0
Ag     2 -0.0301106365973  0.2190254606090 -0.1512931933795 1.0
END
