TITL 4Ag2Se_CONSTCUT_NOSYM-200810-174139-006431 0.0226 228.125177 -4.61180073E+004 0 0 12 (P1) n - 1
REM
REM Run started: Tue, 11 Aug 2020 08:33:23 +0100 in /lustre/scratch/uccabz1/launch_tmp/launcher_2020-08-10-16-41-37-975749
REM CASTEP 20.1 from code version af48c487+ pr-geom-scf-spinfix Tue Jun 2 15:39:59 2020 +0100
REM Functional PBE for solids (2008) Relativity Koelling-Harmon Dispersion off
REM Cut-off 300.0000 eV Grid scale 2.0000 Gmax 26.6208 1/A FBSC none
REM MP grid 4 4 4 Offset 0.000 0.000 0.000 No. kpts 32 Spacing 0.05
REM Total runtime: 53674.8 s
REM Overall efficiency: 98.1667 %
REM
REM 4Ag2Se_CONSTCUT_NOSYM.cell (04f5f378ecb9f162ba8e0859c4ea5e99)
REM
REM compiler GCC version 4.9.2
REM options -cpp -iprefix /lustre/shared/ucl/apps/gcc/4.9.2/bin/../lib/gcc/x86_64-unknown-linux-gnu/4.9.2/ -mtune=corei7 -march=x86-64 -g -Og
REM COMMAND_LINE
REM seed 1017916417 -1640949693 1049095973 2109880544 -1745746750 641792604 -842520661 216671524 1505931178 2008829657 287522739 929734005
REM
REM Se 3|2.1|7|7|9|40:41:32(qc=5)
REM Ag 3|2.2|7|7|9|40U:50:41:42(qc=5)
REM 
CELL 1.54180    6.62696    6.68534    6.34471   72.47753  101.96405   66.57029
LATT -1
SFAC Se Ag 
Se     1  0.3697323215543  0.4053094815873 -0.0982732082917 1.0
Se     1 -0.3427668016622 -0.1802247067791 -0.3924481657766 1.0
Se     1  0.1013187220750  0.0055554642986  0.0862652038462 1.0
Se     1 -0.0347323856260  0.3256560964095 -0.4838912236529 1.0
Ag     2  0.2707149928891  0.2777515609659  0.2909914653188 1.0
Ag     2 -0.2633828270713  0.1300677329584  0.3265342656361 1.0
Ag     2 -0.3075882567000  0.1584245512609 -0.2487218777143 1.0
Ag     2  0.2281680846967 -0.1746881176827 -0.4314133453785 1.0
Ag     2  0.4281513398404 -0.0337866271819 -0.0993755175936 1.0
Ag     2  0.4888610353579 -0.4097919254346  0.3183351727626 1.0
Ag     2 -0.0663951569873 -0.2752825177789  0.2411116076325 1.0
Ag     2 -0.2237334683666  0.4826792073765  0.0132950232114 1.0
END
