TITL 4Ag2Se_CONSTCUT_NOSYM-200811-020110-baf1b7 -0.0105 224.441505 -4.61182193E+004 0 0 12 (P1) n - 1
REM
REM Run started: Tue, 11 Aug 2020 11:53:34 +0100 in /lustre/scratch/uccabz1/launch_tmp/launcher_2020-08-11-01-01-08-464593
REM CASTEP 20.1 from code version af48c487+ pr-geom-scf-spinfix Tue Jun 2 15:39:59 2020 +0100
REM Functional PBE for solids (2008) Relativity Koelling-Harmon Dispersion off
REM Cut-off 300.0000 eV Grid scale 2.0000 Gmax 26.6208 1/A FBSC none
REM MP grid 5 3 4 Offset 0.000 0.000 0.000 No. kpts 30 Spacing 0.05
REM Total runtime: 35658.9 s
REM Overall efficiency: 97.7273 %
REM
REM 4Ag2Se_CONSTCUT_NOSYM.cell (04f5f378ecb9f162ba8e0859c4ea5e99)
REM
REM compiler GCC version 4.9.2
REM options -cpp -iprefix /lustre/shared/ucl/apps/gcc/4.9.2/bin/../lib/gcc/x86_64-unknown-linux-gnu/4.9.2/ -mtune=corei7 -march=x86-64 -g -Og
REM COMMAND_LINE
REM seed 1945901606 1730093129 -754878967 -1167392978 -1621321248 1882639625 -964530336 1853665282 -859371576 1090038882 787013917 410060779
REM
REM Se 3|2.1|7|7|9|40:41:32(qc=5)
REM Ag 3|2.2|7|7|9|40U:50:41:42(qc=5)
REM 
CELL 1.54180    5.29191    7.27904    6.47571  106.18034  101.48469  102.74256
LATT -1
SFAC Se Ag 
Se     1  0.1906751598012 -0.4914749975216  0.3732343819077 1.0
Se     1 -0.3698883628892  0.4178175479953 -0.1127465918126 1.0
Se     1 -0.2287854844663 -0.0430893002282 -0.4738060590149 1.0
Se     1  0.2991341600382  0.0579500187324  0.0904412716136 1.0
Ag     2  0.0105129458439 -0.2260546438486  0.2231477086374 1.0
Ag     2  0.2969883792443 -0.1467915286170 -0.3133891123201 1.0
Ag     2 -0.1997161045254  0.0945335862004  0.0787877388896 1.0
Ag     2 -0.2331848746796 -0.2828141933564 -0.2460184714783 1.0
Ag     2  0.2459097037277  0.1827399971674  0.5164885093915 1.0
Ag     2  0.4597781356533 -0.2721791230995  0.0811747683195 1.0
Ag     2  0.1132388659035  0.3386633856076 -0.0884841277484 1.0
Ag     2 -0.2235856236518  0.3445825509683 -0.5092850163850 1.0
END
