TITL 4Ag2Se_CONSTCUT_NOSYM-200811-024142-1f18ff -0.0185 215.979833 -4.61185041E+004 0 0 12 (Pm) n - 1
REM
REM Run started: Tue, 11 Aug 2020 09:30:07 +0100 in /lustre/scratch/uccabz1/launch_tmp/launcher_2020-08-11-01-41-40-692180
REM CASTEP 20.1 from code version af48c487+ pr-geom-scf-spinfix Tue Jun 2 15:39:59 2020 +0100
REM Functional PBE for solids (2008) Relativity Koelling-Harmon Dispersion off
REM Cut-off 300.0000 eV Grid scale 2.0000 Gmax 26.6208 1/A FBSC none
REM MP grid 5 4 3 Offset 0.000 0.000 0.000 No. kpts 30 Spacing 0.05
REM Total runtime: 24681 s
REM Overall efficiency: 97.4545 %
REM
REM 4Ag2Se_CONSTCUT_NOSYM.cell (04f5f378ecb9f162ba8e0859c4ea5e99)
REM
REM compiler GCC version 4.9.2
REM options -cpp -iprefix /lustre/shared/ucl/apps/gcc/4.9.2/bin/../lib/gcc/x86_64-unknown-linux-gnu/4.9.2/ -mtune=corei7 -march=x86-64 -g -Og
REM COMMAND_LINE
REM seed 1728516648 1030426987 497009786 429675776 -1450758611 110356164 -971746709 -1700073098 502065411 -1486645024 -1061794602 1667272948
REM
REM Se 3|2.1|7|7|9|40:41:32(qc=5)
REM Ag 3|2.2|7|7|9|40U:50:41:42(qc=5)
REM 
CELL 1.54180    4.68132    5.67269    8.13462   91.09224   89.82889   90.09607
LATT -1
SFAC Se Ag 
Se     1 -0.2035561850165 -0.2423471948511  0.1423646095444 1.0
Se     1  0.2968736611589  0.2439884811870 -0.0636011732445 1.0
Se     1  0.2957238276703  0.2674290619495 -0.4723733195178 1.0
Se     1 -0.2024102617847 -0.2372783936576 -0.2657103916000 1.0
Ag     2 -0.2036613617805 -0.4822359056559  0.4350580503238 1.0
Ag     2 -0.2026774909329  0.0194595484670  0.4379968342100 1.0
Ag     2 -0.7032169541029  0.0074137912650  0.2336594896380 1.0
Ag     2 -0.2027859865131  0.2671065348746 -0.2428316058798 1.0
Ag     2  0.2948124468583 -0.2610143050321 -0.0880425964229 1.0
Ag     2  0.2983516918651 -0.2295209739042 -0.4459727251998 1.0
Ag     2 -0.2040448729276  0.2561595949160  0.1176247189438 1.0
Ag     2 -0.7039245144942  0.5085796604417  0.2337240092047 1.0
END
