TITL 4Ag2Se_CONSTCUT-200811-153816-bbae54 0.0431 234.805566 -4.61180617E+004 0 0 12 (R3m) n - 1
REM
REM Run started: Tue, 11 Aug 2020 17:53:30 +0100 in /lustre/scratch/uccabz1/launch_tmp/launcher_2020-08-11-14-38-14-267453
REM CASTEP 20.1 from code version af48c487+ pr-geom-scf-spinfix Tue Jun 2 15:39:59 2020 +0100
REM Functional PBE for solids (2008) Relativity Koelling-Harmon Dispersion off
REM Cut-off 300.0000 eV Grid scale 2.0000 Gmax 26.6208 1/A FBSC none
REM MP grid 4 4 4 Offset 0.000 0.000 0.000 No. kpts 12 Spacing 0.05
REM Total runtime: 8184.37 s
REM Overall efficiency: 83.25 %
REM
REM 4Ag2Se_CONSTCUT.cell (097ebf1fd09fb02df10c18b5c3809341)
REM
REM compiler GCC version 4.9.2
REM options -cpp -iprefix /lustre/shared/ucl/apps/gcc/4.9.2/bin/../lib/gcc/x86_64-unknown-linux-gnu/4.9.2/ -mtune=corei7 -march=x86-64 -g -Og
REM COMMAND_LINE
REM seed -757975925 -951632462 -1058910388 -1503106089 -511046140 -429339213 2005812700 929156995 2096938034 -807470431 -108508004 667011687
REM
REM Se 3|2.1|7|7|9|40:41:32(qc=5)
REM Ag 3|2.2|7|7|9|40U:50:41:42(qc=5)
REM 
CELL 1.54180    6.17859    6.17859    6.17859   93.08173   93.08173   93.08173
LATT -1
SFAC Se Ag 
Se     1 -0.3693202561346  0.1182932166196 -0.3721141350149 1.0
Se     1 -0.3721141350149 -0.3693202561346  0.1182932166196 1.0
Se     1  0.1182932166196 -0.3721141350149 -0.3693202561346 1.0
Se     1  0.1954033179055  0.1954033179055  0.1954033179055 1.0
Ag     2 -0.1000494092383 -0.0991376372413  0.3611005104735 1.0
Ag     2  0.3611005104735 -0.1000494092383 -0.0991376372413 1.0
Ag     2 -0.0991376372413  0.3611005104735 -0.1000494092383 1.0
Ag     2  0.3430527900580 -0.1674283501871  0.3471283249550 1.0
Ag     2  0.3471283249550  0.3430527900580 -0.1674283501871 1.0
Ag     2 -0.1674283501871  0.3471283249550  0.3430527900580 1.0
Ag     2 -0.0899970594392 -0.0899970594392 -0.0899970594392 1.0
Ag     2 -0.3711761127564 -0.3711761127564 -0.3711761127564 1.0
END
