TITL 4Ag2Se_CONSTCUT-200811-050944-0c16f5 -0.0258 232.880219 -4.61180997E+004 0 0 12 (R3) n - 1
REM
REM Run started: Tue, 11 Aug 2020 06:42:46 +0100 in /lustre/scratch/uccabz1/launch_tmp/launcher_2020-08-11-04-09-42-148213
REM CASTEP 20.1 from code version af48c487+ pr-geom-scf-spinfix Tue Jun 2 15:39:59 2020 +0100
REM Functional PBE for solids (2008) Relativity Koelling-Harmon Dispersion off
REM Cut-off 300.0000 eV Grid scale 2.0000 Gmax 26.6208 1/A FBSC none
REM MP grid 4 4 4 Offset 0.000 0.000 0.000 No. kpts 12 Spacing 0.05
REM Total runtime: 5749.29 s
REM Overall efficiency: 85.8333 %
REM
REM 4Ag2Se_CONSTCUT.cell (097ebf1fd09fb02df10c18b5c3809341)
REM
REM compiler GCC version 4.9.2
REM options -cpp -iprefix /lustre/shared/ucl/apps/gcc/4.9.2/bin/../lib/gcc/x86_64-unknown-linux-gnu/4.9.2/ -mtune=corei7 -march=x86-64 -g -Og
REM COMMAND_LINE
REM seed 659168296 -1174446441 1583096955 1856116647 1599992794 901530697 -625722135 1239937945 -294066793 731807998 -1925276576 238874952
REM
REM Se 3|2.1|7|7|9|40:41:32(qc=5)
REM Ag 3|2.2|7|7|9|40U:50:41:42(qc=5)
REM 
CELL 1.54180    6.16047    6.16047    6.16047   87.01838   87.01838   87.01838
LATT -1
SFAC Se Ag 
Se     1 -0.2413149959242 -0.1476684562745  0.2731834107456 1.0
Se     1 -0.1476684562745  0.2731834107456 -0.2413149959242 1.0
Se     1  0.2731834107456 -0.2413149959242 -0.1476684562745 1.0
Se     1  0.3605458327181  0.3605458327181  0.3605458327181 1.0
Ag     2  0.1764125850659  0.3600750203330 -0.0201987572033 1.0
Ag     2  0.3600750203330 -0.0201987572033  0.1764125850659 1.0
Ag     2 -0.0201987572033  0.1764125850659  0.3600750203330 1.0
Ag     2 -0.3064436295144  0.4707070395503  0.0954331913188 1.0
Ag     2  0.4707070395503  0.0954331913188 -0.3064436295144 1.0
Ag     2  0.0954331913188 -0.3064436295144  0.4707070395503 1.0
Ag     2 -0.1517608324274 -0.1517608324274 -0.1517608324274 1.0
Ag     2 -0.3937806083880 -0.3937806083880 -0.3937806083880 1.0
END
