TITL 4Ag2Se_CONSTCUT_NOSYM-200811-032822-8ab522 0.0237 211.283243 -4.61178317E+004 0 0 12 (Cmcm) n - 1
REM
REM Run started: Tue, 11 Aug 2020 09:27:36 +0100 in /lustre/scratch/uccabz1/launch_tmp/launcher_2020-08-11-02-28-20-623997
REM CASTEP 20.1 from code version af48c487+ pr-geom-scf-spinfix Tue Jun 2 15:39:59 2020 +0100
REM Functional PBE for solids (2008) Relativity Koelling-Harmon Dispersion off
REM Cut-off 300.0000 eV Grid scale 2.0000 Gmax 26.6208 1/A FBSC none
REM MP grid 5 4 3 Offset 0.000 0.000 0.000 No. kpts 30 Spacing 0.05
REM Total runtime: 21669.6 s
REM Overall efficiency: 97.1111 %
REM
REM 4Ag2Se_CONSTCUT_NOSYM.cell (04f5f378ecb9f162ba8e0859c4ea5e99)
REM
REM compiler GCC version 4.9.2
REM options -cpp -iprefix /lustre/shared/ucl/apps/gcc/4.9.2/bin/../lib/gcc/x86_64-unknown-linux-gnu/4.9.2/ -mtune=corei7 -march=x86-64 -g -Og
REM COMMAND_LINE
REM seed -843381159 -634313974 1575248843 1752873362 -73671879 228685935 -1621224685 1571040255 -553030832 1730410795 -1269154987 -1261431149
REM
REM Se 3|2.1|7|7|9|40:41:32(qc=5)
REM Ag 3|2.2|7|7|9|40U:50:41:42(qc=5)
REM 
CELL 1.54180    4.88437    5.01278    8.63593   90.24497   92.21280   89.77814
LATT -1
SFAC Se Ag 
Se     1  0.2461647782463  0.1752511559246  0.0196167658715 1.0
Se     1 -0.2537858216583  0.1752385740110 -0.4804112962055 1.0
Se     1  0.4803744011661 -0.3243854873098 -0.2159565895235 1.0
Se     1 -0.0197284892457 -0.3247749705023  0.2839189600010 1.0
Ag     2  0.2488180292645  0.1749226325879 -0.3191732993045 1.0
Ag     2  0.4774392322389 -0.3252531519451  0.1227939670269 1.0
Ag     2  0.4739823604915 -0.3246194480051  0.4549694521796 1.0
Ag     2 -0.0221093464551 -0.3255304386470 -0.3771161693857 1.0
Ag     2 -0.0259950898091 -0.3240598768436 -0.0450849425962 1.0
Ag     2 -0.2469251644727  0.1762194638592 -0.1512604452247 1.0
Ag     2  0.2528291128461  0.1764891736222  0.3487569734236 1.0
Ag     2 -0.2503154026125  0.1742012732480  0.1810822237374 1.0
END
