TITL 4Ag2Se_CONSTCUT_NOSYM-200810-205130-898f1c 0.0168 223.998060 -4.61182762E+004 0 0 12 (P1) n - 1
REM
REM Run started: Tue, 11 Aug 2020 07:41:38 +0100 in /lustre/scratch/uccabz1/launch_tmp/launcher_2020-08-10-19-51-28-590727
REM CASTEP 20.1 from code version af48c487+ pr-geom-scf-spinfix Tue Jun 2 15:39:59 2020 +0100
REM Functional PBE for solids (2008) Relativity Koelling-Harmon Dispersion off
REM Cut-off 300.0000 eV Grid scale 2.0000 Gmax 26.6208 1/A FBSC none
REM MP grid 5 3 4 Offset 0.000 0.000 0.000 No. kpts 30 Spacing 0.05
REM Total runtime: 41121.7 s
REM Overall efficiency: 93.5 %
REM
REM 4Ag2Se_CONSTCUT_NOSYM.cell (04f5f378ecb9f162ba8e0859c4ea5e99)
REM
REM compiler GCC version 4.9.2
REM options -cpp -iprefix /lustre/shared/ucl/apps/gcc/4.9.2/bin/../lib/gcc/x86_64-unknown-linux-gnu/4.9.2/ -mtune=corei7 -march=x86-64 -g -Og
REM COMMAND_LINE
REM seed 899749306 -1974094854 -532818041 326305117 336270043 645828150 -1063678084 -555945059 829384715 1686602657 1081172751 -2121713401
REM
REM Se 3|2.1|7|7|9|40:41:32(qc=5)
REM Ag 3|2.2|7|7|9|40U:50:41:42(qc=5)
REM 
CELL 1.54180    4.79573    7.29556    7.75697   65.90691   64.80397   78.03915
LATT -1
SFAC Se Ag 
Se     1 -0.5970238626620  0.2088538598212 -0.3869130350302 1.0
Se     1  0.3076924434806  0.1761605849826  0.1201598447245 1.0
Se     1 -0.1618631692095 -0.3724946763694 -0.1232103967667 1.0
Se     1 -0.2008610839131 -0.2375362744585  0.3300106239266 1.0
Ag     2 -0.3320782331203  0.3966986968219 -0.2648110311699 1.0
Ag     2 -0.2829660696041  0.2773311104170  0.2056243364203 1.0
Ag     2  0.3857478866603 -0.2034992014489 -0.2672141499440 1.0
Ag     2  0.0923522396356 -0.5749172797177  0.3226713559008 1.0
Ag     2  0.2458773327518  0.6103425768010 -0.4789258198405 1.0
Ag     2 -0.0354944611161  0.0006081867685  0.5341261022095 1.0
Ag     2 -0.0685322822889  0.0349090989438 -0.0546224598756 1.0
Ag     2  0.4059579593857 -0.1927831825613  0.0977256294453 1.0
END
