TITL 4Ag2Se_CONSTCUT-200811-055728-9b9d74 -0.0456 229.666530 -4.61181988E+004 0 0 12 (R3) n - 1
REM
REM Run started: Tue, 11 Aug 2020 08:55:08 +0100 in /lustre/scratch/uccabz1/launch_tmp/launcher_2020-08-11-04-57-26-028067
REM CASTEP 20.1 from code version af48c487+ pr-geom-scf-spinfix Tue Jun 2 15:39:59 2020 +0100
REM Functional PBE for solids (2008) Relativity Koelling-Harmon Dispersion off
REM Cut-off 300.0000 eV Grid scale 2.0000 Gmax 26.6208 1/A FBSC none
REM MP grid 4 4 4 Offset 0.000 0.000 0.000 No. kpts 12 Spacing 0.05
REM Total runtime: 10730.2 s
REM Overall efficiency: 84.8889 %
REM
REM 4Ag2Se_CONSTCUT.cell (097ebf1fd09fb02df10c18b5c3809341)
REM
REM compiler GCC version 4.9.2
REM options -cpp -iprefix /lustre/shared/ucl/apps/gcc/4.9.2/bin/../lib/gcc/x86_64-unknown-linux-gnu/4.9.2/ -mtune=corei7 -march=x86-64 -g -Og
REM COMMAND_LINE
REM seed -698238985 -347837012 68402879 -1817289730 -1619481632 -2128895668 1072793843 -731363678 2103710518 -198378211 1354245105 390647351
REM
REM Se 3|2.1|7|7|9|40:41:32(qc=5)
REM Ag 3|2.2|7|7|9|40U:50:41:42(qc=5)
REM 
CELL 1.54180    6.12637    6.12637    6.12637   88.38058   88.38058   88.38058
LATT -1
SFAC Se Ag 
Se     1  0.2528706803464  0.1464762353890 -0.2612935359763 1.0
Se     1 -0.2612935359763  0.2528706803464  0.1464762353890 1.0
Se     1  0.1464762353890 -0.2612935359763  0.2528706803464 1.0
Se     1 -0.3434460483300 -0.3434460483300 -0.3434460483300 1.0
Ag     2  0.3634449284072 -0.4781150034096 -0.0448641912090 1.0
Ag     2 -0.0448641912090  0.3634449284072 -0.4781150034096 1.0
Ag     2 -0.4781150034096 -0.0448641912090  0.3634449284072 1.0
Ag     2  0.0703144419893 -0.2271110400619 -0.3031511044224 1.0
Ag     2 -0.3031511044224  0.0703144419893 -0.2271110400619 1.0
Ag     2 -0.2271110400619 -0.3031511044224  0.0703144419893 1.0
Ag     2  0.4126607581502  0.4126607581502  0.4126607581502 1.0
Ag     2  0.1583278791272  0.1583278791272  0.1583278791272 1.0
END
