TITL 4Ag2Se_CONSTCUT_NOSYM-200810-192027-0caba8 -0.0246 219.910139 -4.61184831E+004 0 0 12 (P1) n - 1
REM
REM Run started: Tue, 11 Aug 2020 02:30:30 +0100 in /lustre/scratch/uccabz1/launch_tmp/launcher_2020-08-10-18-20-25-987910
REM CASTEP 20.1 from code version af48c487+ pr-geom-scf-spinfix Tue Jun 2 15:39:59 2020 +0100
REM Functional PBE for solids (2008) Relativity Koelling-Harmon Dispersion off
REM Cut-off 300.0000 eV Grid scale 2.0000 Gmax 26.6208 1/A FBSC none
REM MP grid 5 3 3 Offset 0.000 0.000 0.000 No. kpts 23 Spacing 0.05
REM Total runtime: 26006.2 s
REM Overall efficiency: 86.7273 %
REM
REM 4Ag2Se_CONSTCUT_NOSYM.cell (04f5f378ecb9f162ba8e0859c4ea5e99)
REM
REM compiler GCC version 4.9.2
REM options -cpp -iprefix /lustre/shared/ucl/apps/gcc/4.9.2/bin/../lib/gcc/x86_64-unknown-linux-gnu/4.9.2/ -mtune=corei7 -march=x86-64 -g -Og
REM COMMAND_LINE
REM seed 1429285206 122140269 55709960 -1306753733 -1985810393 1395110495 1543384489 1951366997 334338539 1326351729 -952950529 1908991528
REM
REM Se 3|2.1|7|7|9|40:41:32(qc=5)
REM Ag 3|2.2|7|7|9|40U:50:41:42(qc=5)
REM 
CELL 1.54180    4.33807    7.06907    7.61251  100.91174   99.25568  101.37378
LATT -1
SFAC Se Ag 
Se     1  0.4143473346514 -0.1149052397290 -0.2055339996786 1.0
Se     1  0.0083292512161 -0.1457545464170 -0.6693166852235 1.0
Se     1  0.8415419405183  0.4552381259021  0.5956542222429 1.0
Se     1  0.2548215373736  0.4833230323163  0.0573927199579 1.0
Ag     2 -0.2152625500689  0.0627678623153 -0.4185669965638 1.0
Ag     2 -0.1705656888780 -0.3140357062506 -0.0588894066062 1.0
Ag     2  0.2634596172005  0.2347648853665  0.4007890581281 1.0
Ag     2 -0.5065235323917 -0.0426436553393  0.1614768436678 1.0
Ag     2  0.4492932816510  0.2753858206629  0.7936573000284 1.0
Ag     2 -0.0119203090662  0.1045684184452 -0.0207394245077 1.0
Ag     2  0.7703869472638  0.3876193946644  0.2272739679046 1.0
Ag     2 -0.5727608294701 -0.3479046919367 -0.5479240993498 1.0
END
