TITL 4Ag2Se_CONSTCUT_NOSYM-200810-202049-3a59bd 0.1985 223.369499 -4.61184217E+004 0 0 12 (P1) n - 1
REM
REM Run started: Tue, 11 Aug 2020 08:40:24 +0100 in /lustre/scratch/uccabz1/launch_tmp/launcher_2020-08-10-19-20-47-450448
REM CASTEP 20.1 from code version af48c487+ pr-geom-scf-spinfix Tue Jun 2 15:39:59 2020 +0100
REM Functional PBE for solids (2008) Relativity Koelling-Harmon Dispersion off
REM Cut-off 300.0000 eV Grid scale 2.0000 Gmax 26.6208 1/A FBSC none
REM MP grid 5 4 4 Offset 0.000 0.000 0.000 No. kpts 40 Spacing 0.05
REM Total runtime: 49335.6 s
REM Overall efficiency: 98.5 %
REM
REM 4Ag2Se_CONSTCUT_NOSYM.cell (04f5f378ecb9f162ba8e0859c4ea5e99)
REM
REM compiler GCC version 4.9.2
REM options -cpp -iprefix /lustre/shared/ucl/apps/gcc/4.9.2/bin/../lib/gcc/x86_64-unknown-linux-gnu/4.9.2/ -mtune=corei7 -march=x86-64 -g -Og
REM COMMAND_LINE
REM seed -1365076657 929071692 2141505302 -403501766 -2095392687 666811277 -1330795000 -1971807397 1936696817 173624255 939322188 1157130624
REM
REM Se 3|2.1|7|7|9|40:41:32(qc=5)
REM Ag 3|2.2|7|7|9|40U:50:41:42(qc=5)
REM 
CELL 1.54180    5.35477    6.73214    7.02871   73.30295   67.55274   88.34531
LATT -1
SFAC Se Ag 
Se     1 -0.0702848088961  0.3821690237809  0.0700394082491 1.0
Se     1  0.1667342343142 -0.1134068926518 -0.3142981056344 1.0
Se     1  0.4191792410507 -0.2595646030644  0.1701155681790 1.0
Se     1 -0.4295080566719  0.3964091623221 -0.3703536147750 1.0
Ag     2 -0.1542204689934 -0.2803150260628  0.2911234978811 1.0
Ag     2 -0.2230771948699  0.0972046972304 -0.1004426493540 1.0
Ag     2 -0.4440641862688  0.0934110657095  0.3419675565378 1.0
Ag     2 -0.3461527110843 -0.1882083413080 -0.2991938431774 1.0
Ag     2  0.0703101939502 -0.4714127247904 -0.3958325821198 1.0
Ag     2  0.0119586917812  0.1946937039175  0.4344790151618 1.0
Ag     2  0.2032558519130  0.0620848304110  0.0430921051178 1.0
Ag     2 -0.5467740862247 -0.5708080954941  0.0200825439339 1.0
END
