TITL 4Ag2Se_CONSTCUT_NOSYM-200810-201851-d946ac -0.0142 224.206695 -4.61185485E+004 0 0 12 (P1) n - 1
REM
REM Run started: Tue, 11 Aug 2020 04:30:38 +0100 in /lustre/scratch/uccabz1/launch_tmp/launcher_2020-08-10-19-18-49-364857
REM CASTEP 20.1 from code version af48c487+ pr-geom-scf-spinfix Tue Jun 2 15:39:59 2020 +0100
REM Functional PBE for solids (2008) Relativity Koelling-Harmon Dispersion off
REM Cut-off 300.0000 eV Grid scale 2.0000 Gmax 26.6208 1/A FBSC none
REM MP grid 5 3 4 Offset 0.000 0.000 0.000 No. kpts 30 Spacing 0.05
REM Total runtime: 34088.8 s
REM Overall efficiency: 80.9231 %
REM
REM 4Ag2Se_CONSTCUT_NOSYM.cell (04f5f378ecb9f162ba8e0859c4ea5e99)
REM
REM compiler GCC version 4.9.2
REM options -cpp -iprefix /lustre/shared/ucl/apps/gcc/4.9.2/bin/../lib/gcc/x86_64-unknown-linux-gnu/4.9.2/ -mtune=corei7 -march=x86-64 -g -Og
REM COMMAND_LINE
REM seed -1862319809 192574592 1991093041 -564922502 -1630055609 -553546007 390888211 -2050071301 1425169739 922924586 -276258592 -1081298851
REM
REM Se 3|2.1|7|7|9|40:41:32(qc=5)
REM Ag 3|2.2|7|7|9|40U:50:41:42(qc=5)
REM 
CELL 1.54180    4.83592    6.98350    6.84309  103.60233   93.09857   90.80248
LATT -1
SFAC Se Ag 
Se     1  0.3221316004752  0.6035813670505  0.2566580356569 1.0
Se     1  0.0179993548304  0.1708887825369  0.4234979419166 1.0
Se     1 -0.4496700364728  0.1500899810724 -0.1939787976449 1.0
Se     1 -0.1262832900066 -0.3572576644651 -0.1919519489483 1.0
Ag     2 -0.0764711405810  0.0005344203247  0.0488133118356 1.0
Ag     2  0.4423123772153  0.2079333505026  0.1947148095039 1.0
Ag     2 -0.3836635281376 -0.0788504524710 -0.5921347498511 1.0
Ag     2  0.3909807863804 -0.5320372700674 -0.3761424045442 1.0
Ag     2  0.1388112794994 -0.1207788465783 -0.3769645777555 1.0
Ag     2  0.4110107977037 -0.2044429767934 -0.0272805036285 1.0
Ag     2  0.0703043434335  0.3256300239840 -0.1004493090102 1.0
Ag     2 -0.1722776443399  0.5273161849042  0.3792815924696 1.0
END
