TITL 4Ag2Se_CONSTCUT-200811-082437-2c915d -0.0135 224.743093 -4.61177731E+004 0 0 12 (P-6) n - 1
REM
REM Run started: Tue, 11 Aug 2020 11:18:44 +0100 in /lustre/scratch/uccabz1/launch_tmp/launcher_2020-08-11-07-24-36-028109
REM CASTEP 20.1 from code version af48c487+ pr-geom-scf-spinfix Tue Jun 2 15:39:59 2020 +0100
REM Functional PBE for solids (2008) Relativity Koelling-Harmon Dispersion off
REM Cut-off 300.0000 eV Grid scale 2.0000 Gmax 26.6208 1/A FBSC none
REM MP grid 5 4 4 Offset 0.000 0.000 0.000 No. kpts 40 Spacing 0.05
REM Total runtime: 10592.9 s
REM Overall efficiency: 87 %
REM
REM 4Ag2Se_CONSTCUT.cell (097ebf1fd09fb02df10c18b5c3809341)
REM
REM compiler GCC version 4.9.2
REM options -cpp -iprefix /lustre/shared/ucl/apps/gcc/4.9.2/bin/../lib/gcc/x86_64-unknown-linux-gnu/4.9.2/ -mtune=corei7 -march=x86-64 -g -Og
REM COMMAND_LINE
REM seed 1094372249 1004731013 -854285752 1638880216 -872998402 -1105334328 1520748792 -166747552 1846630445 -216273913 1778403723 1721394484
REM
REM Se 3|2.1|7|7|9|40:41:32(qc=5)
REM Ag 3|2.2|7|7|9|40U:50:41:42(qc=5)
REM 
CELL 1.54180    4.40690    7.67382    7.67382  120.00000   90.00000   90.00000
LATT -1
SFAC Se Ag 
Se     1  0.2055582840949  0.0490016035746 -0.2226250920712 1.0
Se     1  0.2055582840949  0.2226250920712  0.2716266956458 1.0
Se     1  0.2055582840949 -0.2716266956458 -0.0490016035746 1.0
Se     1 -0.2924393935268 -0.3333333333333  0.3333333333333 1.0
Ag     2 -0.2942067959119  0.2725907554008 -0.1449199412406 1.0
Ag     2 -0.2942067959119  0.1449199412406  0.4175106966413 1.0
Ag     2 -0.2942067959119 -0.4175106966413 -0.2725907554008 1.0
Ag     2  0.2077609209998 -0.0988548245917  0.3725221347781 1.0
Ag     2  0.2077609209998 -0.3725221347781 -0.4713769593698 1.0
Ag     2  0.2077609209998  0.4713769593698  0.0988548245917 1.0
Ag     2  0.7002125779179  0.0000000000000 -0.0000000000000 1.0
Ag     2  0.2062398880606  0.3333333333333 -0.3333333333333 1.0
END
